* File: LOOKAHEAD.pex.netlist
* Created: Thu Jun  6 12:29:26 2013
* Program "Calibre xRC"
* Version "v2011.4_35.27"
* 
.include "LOOKAHEAD.pex.netlist.pex"
.subckt LOOKAHEAD  B<0> A<0> B<1> A<1> B<2> B<6> A<2> A<6> B<3> A<3> B<4> B<7>
+ A<4> A<7> B<5> A<5> GND! VDD! S<0> COUT S<1> S<2> S<3> S<4> S<5> S<6> S<7>
* 
* S<7>	S<7>
* S<6>	S<6>
* S<5>	S<5>
* S<4>	S<4>
* S<3>	S<3>
* S<2>	S<2>
* S<1>	S<1>
* COUT	COUT
* S<0>	S<0>
* VDD!	VDD!
* GND!	GND!
* A<5>	A<5>
* B<5>	B<5>
* A<7>	A<7>
* A<4>	A<4>
* B<7>	B<7>
* B<4>	B<4>
* A<3>	A<3>
* B<3>	B<3>
* A<6>	A<6>
* A<2>	A<2>
* B<6>	B<6>
* B<2>	B<2>
* A<1>	A<1>
* B<1>	B<1>
* A<0>	A<0>
* B<0>	B<0>
mXI59/XI0/MM1 N_XI59/NET7_XI59/XI0/MM1_d N_NET0102_XI59/XI0/MM1_g
+ N_GND!_XI59/XI0/MM1_s N_GND!_XI59/XI1/MM1_b NMOS_VTG L=5e-08 W=7.2e-07
+ AD=5.85e-14 AS=1.008e-13 PD=1.76e-06 PS=1.72e-06
mXI59/XI0/MM0 N_XI59/NET7_XI59/XI0/MM0_d N_NET0116_XI59/XI0/MM0_g
+ N_GND!_XI59/XI0/MM1_s N_GND!_XI59/XI1/MM1_b NMOS_VTG L=5e-08 W=7.2e-07
+ AD=5.31e-14 AS=1.008e-13 PD=1.64e-06 PS=1.72e-06
mXI59/XI0/MM2 XI59/XI0/NET15 N_NET0102_XI59/XI0/MM2_g N_VDD!_XI59/XI0/MM2_s
+ N_VDD!_XI59/XI1/MM0_b PMOS_VTG L=5e-08 W=1.56e-06 AD=2.184e-13 AS=1.515e-13
+ PD=3.4e-06 PS=3.32e-06
mXI59/XI0/MM3 N_XI59/NET7_XI59/XI0/MM3_d N_NET0116_XI59/XI0/MM3_g XI59/XI0/NET15
+ N_VDD!_XI59/XI1/MM0_b PMOS_VTG L=5e-08 W=1.56e-06 AD=1.4625e-13 AS=2.184e-13
+ PD=3.32e-06 PS=3.4e-06
mXI59/XI1/MM1 N_NET0110_XI59/XI1/MM1_d N_XI59/NET7_XI59/XI1/MM1_g
+ N_GND!_XI59/XI1/MM1_s N_GND!_XI59/XI1/MM1_b NMOS_VTG L=5e-08 W=1.44e-06
+ AD=1.161e-13 AS=1.0845e-13 PD=3.36e-06 PS=3.19e-06
mXI59/XI1/MM0 N_NET0110_XI59/XI1/MM0_d N_XI59/NET7_XI59/XI1/MM0_g
+ N_VDD!_XI59/XI1/MM0_s N_VDD!_XI59/XI1/MM0_b PMOS_VTG L=5e-08 W=1.96e-06
+ AD=1.6015e-13 AS=1.57e-13 PD=4.57e-06 PS=4.5e-06
mXI91/XI0/MM0 N_XI91/NET7_XI91/XI0/MM0_d N_NET0163_XI91/XI0/MM0_g
+ N_GND!_XI91/XI0/MM0_s N_GND!_XI91/XI1/MM1_b NMOS_VTG L=5e-08 W=7.2e-07
+ AD=5.85e-14 AS=1.008e-13 PD=1.76e-06 PS=1.72e-06
mXI91/XI0/MM1 N_XI91/NET7_XI91/XI0/MM1_d N_NET0161_XI91/XI0/MM1_g
+ N_GND!_XI91/XI0/MM0_s N_GND!_XI91/XI1/MM1_b NMOS_VTG L=5e-08 W=7.2e-07
+ AD=5.31e-14 AS=1.008e-13 PD=1.64e-06 PS=1.72e-06
mXI91/XI0/MM3 XI91/XI0/NET15 N_NET0163_XI91/XI0/MM3_g N_VDD!_XI91/XI0/MM3_s
+ N_VDD!_XI91/XI1/MM0_b PMOS_VTG L=5e-08 W=1.56e-06 AD=2.184e-13 AS=1.515e-13
+ PD=3.4e-06 PS=3.32e-06
mXI91/XI0/MM2 N_XI91/NET7_XI91/XI0/MM2_d N_NET0161_XI91/XI0/MM2_g XI91/XI0/NET15
+ N_VDD!_XI91/XI1/MM0_b PMOS_VTG L=5e-08 W=1.56e-06 AD=1.4625e-13 AS=2.184e-13
+ PD=3.32e-06 PS=3.4e-06
mXI91/XI1/MM1 N_NET0192_XI91/XI1/MM1_d N_XI91/NET7_XI91/XI1/MM1_g
+ N_GND!_XI91/XI1/MM1_s N_GND!_XI91/XI1/MM1_b NMOS_VTG L=5e-08 W=1.44e-06
+ AD=1.161e-13 AS=1.0845e-13 PD=3.36e-06 PS=3.19e-06
mXI91/XI1/MM0 N_NET0192_XI91/XI1/MM0_d N_XI91/NET7_XI91/XI1/MM0_g
+ N_VDD!_XI91/XI1/MM0_s N_VDD!_XI91/XI1/MM0_b PMOS_VTG L=5e-08 W=1.96e-06
+ AD=1.6015e-13 AS=1.57e-13 PD=4.57e-06 PS=4.5e-06
mXI92/XI0/MM0 N_XI92/NET7_XI92/XI0/MM0_d N_NET0159_XI92/XI0/MM0_g
+ N_GND!_XI92/XI0/MM0_s N_GND!_XI91/XI1/MM1_b NMOS_VTG L=5e-08 W=7.2e-07
+ AD=5.85e-14 AS=1.008e-13 PD=1.76e-06 PS=1.72e-06
mXI92/XI0/MM1 N_XI92/NET7_XI92/XI0/MM1_d N_NET0192_XI92/XI0/MM1_g
+ N_GND!_XI92/XI0/MM0_s N_GND!_XI91/XI1/MM1_b NMOS_VTG L=5e-08 W=7.2e-07
+ AD=5.31e-14 AS=1.008e-13 PD=1.64e-06 PS=1.72e-06
mXI92/XI0/MM3 XI92/XI0/NET15 N_NET0159_XI92/XI0/MM3_g N_VDD!_XI92/XI0/MM3_s
+ N_VDD!_XI91/XI1/MM0_b PMOS_VTG L=5e-08 W=1.56e-06 AD=2.184e-13 AS=1.515e-13
+ PD=3.4e-06 PS=3.32e-06
mXI92/XI0/MM2 N_XI92/NET7_XI92/XI0/MM2_d N_NET0192_XI92/XI0/MM2_g XI92/XI0/NET15
+ N_VDD!_XI91/XI1/MM0_b PMOS_VTG L=5e-08 W=1.56e-06 AD=1.4625e-13 AS=2.184e-13
+ PD=3.32e-06 PS=3.4e-06
mXI92/XI1/MM1 N_COUT_XI92/XI1/MM1_d N_XI92/NET7_XI92/XI1/MM1_g
+ N_GND!_XI92/XI1/MM1_s N_GND!_XI91/XI1/MM1_b NMOS_VTG L=5e-08 W=1.44e-06
+ AD=1.161e-13 AS=1.0845e-13 PD=3.36e-06 PS=3.19e-06
mXI92/XI1/MM0 N_COUT_XI92/XI1/MM0_d N_XI92/NET7_XI92/XI1/MM0_g
+ N_VDD!_XI92/XI1/MM0_s N_VDD!_XI91/XI1/MM0_b PMOS_VTG L=5e-08 W=1.96e-06
+ AD=1.6015e-13 AS=1.57e-13 PD=4.57e-06 PS=4.5e-06
mXI20/XI0/MM1 N_XI20/NET7_XI20/XI0/MM1_d N_A<1>_XI20/XI0/MM1_g
+ N_GND!_XI20/XI0/MM1_s N_GND!_XI59/XI1/MM1_b NMOS_VTG L=5e-08 W=7.2e-07
+ AD=5.85e-14 AS=1.008e-13 PD=1.76e-06 PS=1.72e-06
mXI20/XI0/MM0 N_XI20/NET7_XI20/XI0/MM0_d N_B<1>_XI20/XI0/MM0_g
+ N_GND!_XI20/XI0/MM1_s N_GND!_XI59/XI1/MM1_b NMOS_VTG L=5e-08 W=7.2e-07
+ AD=5.31e-14 AS=1.008e-13 PD=1.64e-06 PS=1.72e-06
mXI20/XI0/MM2 XI20/XI0/NET15 N_A<1>_XI20/XI0/MM2_g N_VDD!_XI20/XI0/MM2_s
+ N_VDD!_XI59/XI1/MM0_b PMOS_VTG L=5e-08 W=1.56e-06 AD=2.184e-13 AS=1.515e-13
+ PD=3.4e-06 PS=3.32e-06
mXI20/XI0/MM3 N_XI20/NET7_XI20/XI0/MM3_d N_B<1>_XI20/XI0/MM3_g XI20/XI0/NET15
+ N_VDD!_XI59/XI1/MM0_b PMOS_VTG L=5e-08 W=1.56e-06 AD=1.4625e-13 AS=2.184e-13
+ PD=3.32e-06 PS=3.4e-06
mXI20/XI1/MM1 N_NET034_XI20/XI1/MM1_d N_XI20/NET7_XI20/XI1/MM1_g
+ N_GND!_XI20/XI1/MM1_s N_GND!_XI59/XI1/MM1_b NMOS_VTG L=5e-08 W=1.44e-06
+ AD=1.161e-13 AS=1.0845e-13 PD=3.36e-06 PS=3.19e-06
mXI20/XI1/MM0 N_NET034_XI20/XI1/MM0_d N_XI20/NET7_XI20/XI1/MM0_g
+ N_VDD!_XI20/XI1/MM0_s N_VDD!_XI59/XI1/MM0_b PMOS_VTG L=5e-08 W=1.96e-06
+ AD=1.6015e-13 AS=1.57e-13 PD=4.57e-06 PS=4.5e-06
mXI22/XI0/MM0 N_XI22/NET7_XI22/XI0/MM0_d N_NET033_XI22/XI0/MM0_g
+ N_GND!_XI22/XI0/MM0_s N_GND!_XI59/XI1/MM1_b NMOS_VTG L=5e-08 W=7.2e-07
+ AD=5.85e-14 AS=1.008e-13 PD=1.76e-06 PS=1.72e-06
mXI22/XI0/MM1 N_XI22/NET7_XI22/XI0/MM1_d N_NET022_XI22/XI0/MM1_g
+ N_GND!_XI22/XI0/MM0_s N_GND!_XI59/XI1/MM1_b NMOS_VTG L=5e-08 W=7.2e-07
+ AD=5.31e-14 AS=1.008e-13 PD=1.64e-06 PS=1.72e-06
mXI22/XI0/MM3 XI22/XI0/NET15 N_NET033_XI22/XI0/MM3_g N_VDD!_XI22/XI0/MM3_s
+ N_VDD!_XI59/XI1/MM0_b PMOS_VTG L=5e-08 W=1.56e-06 AD=2.184e-13 AS=1.515e-13
+ PD=3.4e-06 PS=3.32e-06
mXI22/XI0/MM2 N_XI22/NET7_XI22/XI0/MM2_d N_NET022_XI22/XI0/MM2_g XI22/XI0/NET15
+ N_VDD!_XI59/XI1/MM0_b PMOS_VTG L=5e-08 W=1.56e-06 AD=1.4625e-13 AS=2.184e-13
+ PD=3.32e-06 PS=3.4e-06
mXI22/XI1/MM1 N_NET037_XI22/XI1/MM1_d N_XI22/NET7_XI22/XI1/MM1_g
+ N_GND!_XI22/XI1/MM1_s N_GND!_XI59/XI1/MM1_b NMOS_VTG L=5e-08 W=1.44e-06
+ AD=1.161e-13 AS=1.0845e-13 PD=3.36e-06 PS=3.19e-06
mXI22/XI1/MM0 N_NET037_XI22/XI1/MM0_d N_XI22/NET7_XI22/XI1/MM0_g
+ N_VDD!_XI22/XI1/MM0_s N_VDD!_XI59/XI1/MM0_b PMOS_VTG L=5e-08 W=1.96e-06
+ AD=1.6015e-13 AS=1.57e-13 PD=4.57e-06 PS=4.5e-06
mXI61/XI0/MM1 N_XI61/NET7_XI61/XI0/MM1_d N_NET0105_XI61/XI0/MM1_g
+ N_GND!_XI61/XI0/MM1_s N_GND!_XI91/XI1/MM1_b NMOS_VTG L=5e-08 W=7.2e-07
+ AD=5.85e-14 AS=1.008e-13 PD=1.76e-06 PS=1.72e-06
mXI61/XI0/MM0 N_XI61/NET7_XI61/XI0/MM0_d N_NET0110_XI61/XI0/MM0_g
+ N_GND!_XI61/XI0/MM1_s N_GND!_XI91/XI1/MM1_b NMOS_VTG L=5e-08 W=7.2e-07
+ AD=5.31e-14 AS=1.008e-13 PD=1.64e-06 PS=1.72e-06
mXI61/XI0/MM2 XI61/XI0/NET15 N_NET0105_XI61/XI0/MM2_g N_VDD!_XI61/XI0/MM2_s
+ N_VDD!_XI91/XI1/MM0_b PMOS_VTG L=5e-08 W=1.56e-06 AD=2.184e-13 AS=1.515e-13
+ PD=3.4e-06 PS=3.32e-06
mXI61/XI0/MM3 N_XI61/NET7_XI61/XI0/MM3_d N_NET0110_XI61/XI0/MM3_g XI61/XI0/NET15
+ N_VDD!_XI91/XI1/MM0_b PMOS_VTG L=5e-08 W=1.56e-06 AD=1.4625e-13 AS=2.184e-13
+ PD=3.32e-06 PS=3.4e-06
mXI61/XI1/MM1 N_NET0112_XI61/XI1/MM1_d N_XI61/NET7_XI61/XI1/MM1_g
+ N_GND!_XI61/XI1/MM1_s N_GND!_XI91/XI1/MM1_b NMOS_VTG L=5e-08 W=1.44e-06
+ AD=1.161e-13 AS=1.0845e-13 PD=3.36e-06 PS=3.19e-06
mXI61/XI1/MM0 N_NET0112_XI61/XI1/MM0_d N_XI61/NET7_XI61/XI1/MM0_g
+ N_VDD!_XI61/XI1/MM0_s N_VDD!_XI91/XI1/MM0_b PMOS_VTG L=5e-08 W=1.96e-06
+ AD=1.6015e-13 AS=1.57e-13 PD=4.57e-06 PS=4.5e-06
mXI60/XI0/MM0 N_XI60/NET7_XI60/XI0/MM0_d N_NET0129_XI60/XI0/MM0_g
+ N_GND!_XI60/XI0/MM0_s N_GND!_XI91/XI1/MM1_b NMOS_VTG L=5e-08 W=7.2e-07
+ AD=5.85e-14 AS=1.008e-13 PD=1.76e-06 PS=1.72e-06
mXI60/XI0/MM1 N_XI60/NET7_XI60/XI0/MM1_d N_NET0112_XI60/XI0/MM1_g
+ N_GND!_XI60/XI0/MM0_s N_GND!_XI91/XI1/MM1_b NMOS_VTG L=5e-08 W=7.2e-07
+ AD=5.31e-14 AS=1.008e-13 PD=1.64e-06 PS=1.72e-06
mXI60/XI0/MM3 XI60/XI0/NET15 N_NET0129_XI60/XI0/MM3_g N_VDD!_XI60/XI0/MM3_s
+ N_VDD!_XI91/XI1/MM0_b PMOS_VTG L=5e-08 W=1.56e-06 AD=2.184e-13 AS=1.515e-13
+ PD=3.4e-06 PS=3.32e-06
mXI60/XI0/MM2 N_XI60/NET7_XI60/XI0/MM2_d N_NET0112_XI60/XI0/MM2_g XI60/XI0/NET15
+ N_VDD!_XI91/XI1/MM0_b PMOS_VTG L=5e-08 W=1.56e-06 AD=1.4625e-13 AS=2.184e-13
+ PD=3.32e-06 PS=3.4e-06
mXI60/XI1/MM1 N_NET0111_XI60/XI1/MM1_d N_XI60/NET7_XI60/XI1/MM1_g
+ N_GND!_XI60/XI1/MM1_s N_GND!_XI91/XI1/MM1_b NMOS_VTG L=5e-08 W=1.44e-06
+ AD=1.161e-13 AS=1.0845e-13 PD=3.36e-06 PS=3.19e-06
mXI60/XI1/MM0 N_NET0111_XI60/XI1/MM0_d N_XI60/NET7_XI60/XI1/MM0_g
+ N_VDD!_XI60/XI1/MM0_s N_VDD!_XI91/XI1/MM0_b PMOS_VTG L=5e-08 W=1.96e-06
+ AD=1.6015e-13 AS=1.57e-13 PD=4.57e-06 PS=4.5e-06
mXI24/XI0/MM1 N_XI24/NET7_XI24/XI0/MM1_d N_A<2>_XI24/XI0/MM1_g
+ N_GND!_XI24/XI0/MM1_s N_GND!_XI59/XI1/MM1_b NMOS_VTG L=5e-08 W=7.2e-07
+ AD=5.85e-14 AS=1.008e-13 PD=1.76e-06 PS=1.72e-06
mXI24/XI0/MM0 N_XI24/NET7_XI24/XI0/MM0_d N_B<2>_XI24/XI0/MM0_g
+ N_GND!_XI24/XI0/MM1_s N_GND!_XI59/XI1/MM1_b NMOS_VTG L=5e-08 W=7.2e-07
+ AD=5.31e-14 AS=1.008e-13 PD=1.64e-06 PS=1.72e-06
mXI24/XI0/MM2 XI24/XI0/NET15 N_A<2>_XI24/XI0/MM2_g N_VDD!_XI24/XI0/MM2_s
+ N_VDD!_XI59/XI1/MM0_b PMOS_VTG L=5e-08 W=1.56e-06 AD=2.184e-13 AS=1.515e-13
+ PD=3.4e-06 PS=3.32e-06
mXI24/XI0/MM3 N_XI24/NET7_XI24/XI0/MM3_d N_B<2>_XI24/XI0/MM3_g XI24/XI0/NET15
+ N_VDD!_XI59/XI1/MM0_b PMOS_VTG L=5e-08 W=1.56e-06 AD=1.4625e-13 AS=2.184e-13
+ PD=3.32e-06 PS=3.4e-06
mXI24/XI1/MM1 N_NET042_XI24/XI1/MM1_d N_XI24/NET7_XI24/XI1/MM1_g
+ N_GND!_XI24/XI1/MM1_s N_GND!_XI59/XI1/MM1_b NMOS_VTG L=5e-08 W=1.44e-06
+ AD=1.161e-13 AS=1.0845e-13 PD=3.36e-06 PS=3.19e-06
mXI24/XI1/MM0 N_NET042_XI24/XI1/MM0_d N_XI24/NET7_XI24/XI1/MM0_g
+ N_VDD!_XI24/XI1/MM0_s N_VDD!_XI59/XI1/MM0_b PMOS_VTG L=5e-08 W=1.96e-06
+ AD=1.6015e-13 AS=1.57e-13 PD=4.57e-06 PS=4.5e-06
mXI31/XI0/MM0 N_XI31/NET7_XI31/XI0/MM0_d N_NET041_XI31/XI0/MM0_g
+ N_GND!_XI31/XI0/MM0_s N_GND!_XI59/XI1/MM1_b NMOS_VTG L=5e-08 W=7.2e-07
+ AD=5.85e-14 AS=1.008e-13 PD=1.76e-06 PS=1.72e-06
mXI31/XI0/MM1 N_XI31/NET7_XI31/XI0/MM1_d N_NET031_XI31/XI0/MM1_g
+ N_GND!_XI31/XI0/MM0_s N_GND!_XI59/XI1/MM1_b NMOS_VTG L=5e-08 W=7.2e-07
+ AD=5.31e-14 AS=1.008e-13 PD=1.64e-06 PS=1.72e-06
mXI31/XI0/MM3 XI31/XI0/NET15 N_NET041_XI31/XI0/MM3_g N_VDD!_XI31/XI0/MM3_s
+ N_VDD!_XI59/XI1/MM0_b PMOS_VTG L=5e-08 W=1.56e-06 AD=2.184e-13 AS=1.515e-13
+ PD=3.4e-06 PS=3.32e-06
mXI31/XI0/MM2 N_XI31/NET7_XI31/XI0/MM2_d N_NET031_XI31/XI0/MM2_g XI31/XI0/NET15
+ N_VDD!_XI59/XI1/MM0_b PMOS_VTG L=5e-08 W=1.56e-06 AD=1.4625e-13 AS=2.184e-13
+ PD=3.32e-06 PS=3.4e-06
mXI31/XI1/MM1 N_NET059_XI31/XI1/MM1_d N_XI31/NET7_XI31/XI1/MM1_g
+ N_GND!_XI31/XI1/MM1_s N_GND!_XI59/XI1/MM1_b NMOS_VTG L=5e-08 W=1.44e-06
+ AD=1.161e-13 AS=1.0845e-13 PD=3.36e-06 PS=3.19e-06
mXI31/XI1/MM0 N_NET059_XI31/XI1/MM0_d N_XI31/NET7_XI31/XI1/MM0_g
+ N_VDD!_XI31/XI1/MM0_s N_VDD!_XI59/XI1/MM0_b PMOS_VTG L=5e-08 W=1.96e-06
+ AD=1.6015e-13 AS=1.57e-13 PD=4.57e-06 PS=4.5e-06
mXI62/XI0/MM1 N_XI62/NET7_XI62/XI0/MM1_d N_NET0100_XI62/XI0/MM1_g
+ N_GND!_XI62/XI0/MM1_s N_GND!_XI91/XI1/MM1_b NMOS_VTG L=5e-08 W=7.2e-07
+ AD=5.85e-14 AS=1.008e-13 PD=1.76e-06 PS=1.72e-06
mXI62/XI0/MM0 N_XI62/NET7_XI62/XI0/MM0_d N_NET0111_XI62/XI0/MM0_g
+ N_GND!_XI62/XI0/MM1_s N_GND!_XI91/XI1/MM1_b NMOS_VTG L=5e-08 W=7.2e-07
+ AD=5.31e-14 AS=1.008e-13 PD=1.64e-06 PS=1.72e-06
mXI62/XI0/MM2 XI62/XI0/NET15 N_NET0100_XI62/XI0/MM2_g N_VDD!_XI62/XI0/MM2_s
+ N_VDD!_XI91/XI1/MM0_b PMOS_VTG L=5e-08 W=1.56e-06 AD=2.184e-13 AS=1.515e-13
+ PD=3.4e-06 PS=3.32e-06
mXI62/XI0/MM3 N_XI62/NET7_XI62/XI0/MM3_d N_NET0111_XI62/XI0/MM3_g XI62/XI0/NET15
+ N_VDD!_XI91/XI1/MM0_b PMOS_VTG L=5e-08 W=1.56e-06 AD=1.4625e-13 AS=2.184e-13
+ PD=3.32e-06 PS=3.4e-06
mXI62/XI1/MM1 N_NET11_XI62/XI1/MM1_d N_XI62/NET7_XI62/XI1/MM1_g
+ N_GND!_XI62/XI1/MM1_s N_GND!_XI91/XI1/MM1_b NMOS_VTG L=5e-08 W=1.44e-06
+ AD=1.161e-13 AS=1.0845e-13 PD=3.36e-06 PS=3.19e-06
mXI62/XI1/MM0 N_NET11_XI62/XI1/MM0_d N_XI62/NET7_XI62/XI1/MM0_g
+ N_VDD!_XI62/XI1/MM0_s N_VDD!_XI91/XI1/MM0_b PMOS_VTG L=5e-08 W=1.96e-06
+ AD=1.6015e-13 AS=1.57e-13 PD=4.57e-06 PS=4.5e-06
mXI63/XI0/MM1 N_XI63/NET7_XI63/XI0/MM1_d N_A<6>_XI63/XI0/MM1_g
+ N_GND!_XI63/XI0/MM1_s N_GND!_XI91/XI1/MM1_b NMOS_VTG L=5e-08 W=7.2e-07
+ AD=5.85e-14 AS=1.008e-13 PD=1.76e-06 PS=1.72e-06
mXI63/XI0/MM0 N_XI63/NET7_XI63/XI0/MM0_d N_B<6>_XI63/XI0/MM0_g
+ N_GND!_XI63/XI0/MM1_s N_GND!_XI91/XI1/MM1_b NMOS_VTG L=5e-08 W=7.2e-07
+ AD=5.31e-14 AS=1.008e-13 PD=1.64e-06 PS=1.72e-06
mXI63/XI0/MM2 XI63/XI0/NET15 N_A<6>_XI63/XI0/MM2_g N_VDD!_XI63/XI0/MM2_s
+ N_VDD!_XI91/XI1/MM0_b PMOS_VTG L=5e-08 W=1.56e-06 AD=2.184e-13 AS=1.515e-13
+ PD=3.4e-06 PS=3.32e-06
mXI63/XI0/MM3 N_XI63/NET7_XI63/XI0/MM3_d N_B<6>_XI63/XI0/MM3_g XI63/XI0/NET15
+ N_VDD!_XI91/XI1/MM0_b PMOS_VTG L=5e-08 W=1.56e-06 AD=1.4625e-13 AS=2.184e-13
+ PD=3.32e-06 PS=3.4e-06
mXI63/XI1/MM1 N_NET0119_XI63/XI1/MM1_d N_XI63/NET7_XI63/XI1/MM1_g
+ N_GND!_XI63/XI1/MM1_s N_GND!_XI91/XI1/MM1_b NMOS_VTG L=5e-08 W=1.44e-06
+ AD=1.161e-13 AS=1.0845e-13 PD=3.36e-06 PS=3.19e-06
mXI63/XI1/MM0 N_NET0119_XI63/XI1/MM0_d N_XI63/NET7_XI63/XI1/MM0_g
+ N_VDD!_XI63/XI1/MM0_s N_VDD!_XI91/XI1/MM0_b PMOS_VTG L=5e-08 W=1.96e-06
+ AD=1.6015e-13 AS=1.57e-13 PD=4.57e-06 PS=4.5e-06
mXI32/XI0/MM1 N_XI32/NET7_XI32/XI0/MM1_d N_NET032_XI32/XI0/MM1_g
+ N_GND!_XI32/XI0/MM1_s N_GND!_XI59/XI1/MM1_b NMOS_VTG L=5e-08 W=7.2e-07
+ AD=5.85e-14 AS=1.008e-13 PD=1.76e-06 PS=1.72e-06
mXI32/XI0/MM0 N_XI32/NET7_XI32/XI0/MM0_d N_NET059_XI32/XI0/MM0_g
+ N_GND!_XI32/XI0/MM1_s N_GND!_XI59/XI1/MM1_b NMOS_VTG L=5e-08 W=7.2e-07
+ AD=5.31e-14 AS=1.008e-13 PD=1.64e-06 PS=1.72e-06
mXI32/XI0/MM2 XI32/XI0/NET15 N_NET032_XI32/XI0/MM2_g N_VDD!_XI32/XI0/MM2_s
+ N_VDD!_XI59/XI1/MM0_b PMOS_VTG L=5e-08 W=1.56e-06 AD=2.184e-13 AS=1.515e-13
+ PD=3.4e-06 PS=3.32e-06
mXI32/XI0/MM3 N_XI32/NET7_XI32/XI0/MM3_d N_NET059_XI32/XI0/MM3_g XI32/XI0/NET15
+ N_VDD!_XI59/XI1/MM0_b PMOS_VTG L=5e-08 W=1.56e-06 AD=1.4625e-13 AS=2.184e-13
+ PD=3.32e-06 PS=3.4e-06
mXI32/XI1/MM1 N_NET056_XI32/XI1/MM1_d N_XI32/NET7_XI32/XI1/MM1_g
+ N_GND!_XI32/XI1/MM1_s N_GND!_XI59/XI1/MM1_b NMOS_VTG L=5e-08 W=1.44e-06
+ AD=1.161e-13 AS=1.0845e-13 PD=3.36e-06 PS=3.19e-06
mXI32/XI1/MM0 N_NET056_XI32/XI1/MM0_d N_XI32/NET7_XI32/XI1/MM0_g
+ N_VDD!_XI32/XI1/MM0_s N_VDD!_XI59/XI1/MM0_b PMOS_VTG L=5e-08 W=1.96e-06
+ AD=1.6015e-13 AS=1.57e-13 PD=4.57e-06 PS=4.5e-06
mXI35/XI0/MM1 N_XI35/NET7_XI35/XI0/MM1_d N_A<3>_XI35/XI0/MM1_g
+ N_GND!_XI35/XI0/MM1_s N_GND!_XI59/XI1/MM1_b NMOS_VTG L=5e-08 W=7.2e-07
+ AD=5.85e-14 AS=1.008e-13 PD=1.76e-06 PS=1.72e-06
mXI35/XI0/MM0 N_XI35/NET7_XI35/XI0/MM0_d N_B<3>_XI35/XI0/MM0_g
+ N_GND!_XI35/XI0/MM1_s N_GND!_XI59/XI1/MM1_b NMOS_VTG L=5e-08 W=7.2e-07
+ AD=5.31e-14 AS=1.008e-13 PD=1.64e-06 PS=1.72e-06
mXI35/XI0/MM2 XI35/XI0/NET15 N_A<3>_XI35/XI0/MM2_g N_VDD!_XI35/XI0/MM2_s
+ N_VDD!_XI59/XI1/MM0_b PMOS_VTG L=5e-08 W=1.56e-06 AD=2.184e-13 AS=1.515e-13
+ PD=3.4e-06 PS=3.32e-06
mXI35/XI0/MM3 N_XI35/NET7_XI35/XI0/MM3_d N_B<3>_XI35/XI0/MM3_g XI35/XI0/NET15
+ N_VDD!_XI59/XI1/MM0_b PMOS_VTG L=5e-08 W=1.56e-06 AD=1.4625e-13 AS=2.184e-13
+ PD=3.32e-06 PS=3.4e-06
mXI35/XI1/MM1 N_NET062_XI35/XI1/MM1_d N_XI35/NET7_XI35/XI1/MM1_g
+ N_GND!_XI35/XI1/MM1_s N_GND!_XI59/XI1/MM1_b NMOS_VTG L=5e-08 W=1.44e-06
+ AD=1.161e-13 AS=1.0845e-13 PD=3.36e-06 PS=3.19e-06
mXI35/XI1/MM0 N_NET062_XI35/XI1/MM0_d N_XI35/NET7_XI35/XI1/MM0_g
+ N_VDD!_XI35/XI1/MM0_s N_VDD!_XI59/XI1/MM0_b PMOS_VTG L=5e-08 W=1.96e-06
+ AD=1.6015e-13 AS=1.57e-13 PD=4.57e-06 PS=4.5e-06
mXI71/XI0/MM0 N_XI71/NET7_XI71/XI0/MM0_d N_NET0149_XI71/XI0/MM0_g
+ N_GND!_XI71/XI0/MM0_s N_GND!_XI91/XI1/MM1_b NMOS_VTG L=5e-08 W=7.2e-07
+ AD=5.85e-14 AS=1.008e-13 PD=1.76e-06 PS=1.72e-06
mXI71/XI0/MM1 N_XI71/NET7_XI71/XI0/MM1_d N_NET0147_XI71/XI0/MM1_g
+ N_GND!_XI71/XI0/MM0_s N_GND!_XI91/XI1/MM1_b NMOS_VTG L=5e-08 W=7.2e-07
+ AD=5.31e-14 AS=1.008e-13 PD=1.64e-06 PS=1.72e-06
mXI71/XI0/MM3 XI71/XI0/NET15 N_NET0149_XI71/XI0/MM3_g N_VDD!_XI71/XI0/MM3_s
+ N_VDD!_XI91/XI1/MM0_b PMOS_VTG L=5e-08 W=1.56e-06 AD=2.184e-13 AS=1.515e-13
+ PD=3.4e-06 PS=3.32e-06
mXI71/XI0/MM2 N_XI71/NET7_XI71/XI0/MM2_d N_NET0147_XI71/XI0/MM2_g XI71/XI0/NET15
+ N_VDD!_XI91/XI1/MM0_b PMOS_VTG L=5e-08 W=1.56e-06 AD=1.4625e-13 AS=2.184e-13
+ PD=3.32e-06 PS=3.4e-06
mXI71/XI1/MM1 N_NET0145_XI71/XI1/MM1_d N_XI71/NET7_XI71/XI1/MM1_g
+ N_GND!_XI71/XI1/MM1_s N_GND!_XI91/XI1/MM1_b NMOS_VTG L=5e-08 W=1.44e-06
+ AD=1.161e-13 AS=1.0845e-13 PD=3.36e-06 PS=3.19e-06
mXI71/XI1/MM0 N_NET0145_XI71/XI1/MM0_d N_XI71/NET7_XI71/XI1/MM0_g
+ N_VDD!_XI71/XI1/MM0_s N_VDD!_XI91/XI1/MM0_b PMOS_VTG L=5e-08 W=1.96e-06
+ AD=1.6015e-13 AS=1.57e-13 PD=4.57e-06 PS=4.5e-06
mXI72/XI0/MM1 N_XI72/NET7_XI72/XI0/MM1_d N_NET0122_XI72/XI0/MM1_g
+ N_GND!_XI72/XI0/MM1_s N_GND!_XI91/XI1/MM1_b NMOS_VTG L=5e-08 W=7.2e-07
+ AD=5.85e-14 AS=1.008e-13 PD=1.76e-06 PS=1.72e-06
mXI72/XI0/MM0 N_XI72/NET7_XI72/XI0/MM0_d N_NET0145_XI72/XI0/MM0_g
+ N_GND!_XI72/XI0/MM1_s N_GND!_XI91/XI1/MM1_b NMOS_VTG L=5e-08 W=7.2e-07
+ AD=5.31e-14 AS=1.008e-13 PD=1.64e-06 PS=1.72e-06
mXI72/XI0/MM2 XI72/XI0/NET15 N_NET0122_XI72/XI0/MM2_g N_VDD!_XI72/XI0/MM2_s
+ N_VDD!_XI91/XI1/MM0_b PMOS_VTG L=5e-08 W=1.56e-06 AD=2.184e-13 AS=1.515e-13
+ PD=3.4e-06 PS=3.32e-06
mXI72/XI0/MM3 N_XI72/NET7_XI72/XI0/MM3_d N_NET0145_XI72/XI0/MM3_g XI72/XI0/NET15
+ N_VDD!_XI91/XI1/MM0_b PMOS_VTG L=5e-08 W=1.56e-06 AD=1.4625e-13 AS=2.184e-13
+ PD=3.32e-06 PS=3.4e-06
mXI72/XI1/MM1 N_NET0156_XI72/XI1/MM1_d N_XI72/NET7_XI72/XI1/MM1_g
+ N_GND!_XI72/XI1/MM1_s N_GND!_XI91/XI1/MM1_b NMOS_VTG L=5e-08 W=1.44e-06
+ AD=1.161e-13 AS=1.0845e-13 PD=3.36e-06 PS=3.19e-06
mXI72/XI1/MM0 N_NET0156_XI72/XI1/MM0_d N_XI72/NET7_XI72/XI1/MM0_g
+ N_VDD!_XI72/XI1/MM0_s N_VDD!_XI91/XI1/MM0_b PMOS_VTG L=5e-08 W=1.96e-06
+ AD=1.6015e-13 AS=1.57e-13 PD=4.57e-06 PS=4.5e-06
mXI39/XI0/MM0 N_XI39/NET7_XI39/XI0/MM0_d N_NET065_XI39/XI0/MM0_g
+ N_GND!_XI39/XI0/MM0_s N_GND!_XI59/XI1/MM1_b NMOS_VTG L=5e-08 W=7.2e-07
+ AD=5.85e-14 AS=1.008e-13 PD=1.76e-06 PS=1.72e-06
mXI39/XI0/MM1 N_XI39/NET7_XI39/XI0/MM1_d N_NET078_XI39/XI0/MM1_g
+ N_GND!_XI39/XI0/MM0_s N_GND!_XI59/XI1/MM1_b NMOS_VTG L=5e-08 W=7.2e-07
+ AD=5.31e-14 AS=1.008e-13 PD=1.64e-06 PS=1.72e-06
mXI39/XI0/MM3 XI39/XI0/NET15 N_NET065_XI39/XI0/MM3_g N_VDD!_XI39/XI0/MM3_s
+ N_VDD!_XI59/XI1/MM0_b PMOS_VTG L=5e-08 W=1.56e-06 AD=2.184e-13 AS=1.515e-13
+ PD=3.4e-06 PS=3.32e-06
mXI39/XI0/MM2 N_XI39/NET7_XI39/XI0/MM2_d N_NET078_XI39/XI0/MM2_g XI39/XI0/NET15
+ N_VDD!_XI59/XI1/MM0_b PMOS_VTG L=5e-08 W=1.56e-06 AD=1.4625e-13 AS=2.184e-13
+ PD=3.32e-06 PS=3.4e-06
mXI39/XI1/MM1 N_NET073_XI39/XI1/MM1_d N_XI39/NET7_XI39/XI1/MM1_g
+ N_GND!_XI39/XI1/MM1_s N_GND!_XI59/XI1/MM1_b NMOS_VTG L=5e-08 W=1.44e-06
+ AD=1.161e-13 AS=1.0845e-13 PD=3.36e-06 PS=3.19e-06
mXI39/XI1/MM0 N_NET073_XI39/XI1/MM0_d N_XI39/NET7_XI39/XI1/MM0_g
+ N_VDD!_XI39/XI1/MM0_s N_VDD!_XI59/XI1/MM0_b PMOS_VTG L=5e-08 W=1.96e-06
+ AD=1.6015e-13 AS=1.57e-13 PD=4.57e-06 PS=4.5e-06
mXI40/XI0/MM1 N_XI40/NET7_XI40/XI0/MM1_d N_NET063_XI40/XI0/MM1_g
+ N_GND!_XI40/XI0/MM1_s N_GND!_XI59/XI1/MM1_b NMOS_VTG L=5e-08 W=7.2e-07
+ AD=5.85e-14 AS=1.008e-13 PD=1.76e-06 PS=1.72e-06
mXI40/XI0/MM0 N_XI40/NET7_XI40/XI0/MM0_d N_NET073_XI40/XI0/MM0_g
+ N_GND!_XI40/XI0/MM1_s N_GND!_XI59/XI1/MM1_b NMOS_VTG L=5e-08 W=7.2e-07
+ AD=5.31e-14 AS=1.008e-13 PD=1.64e-06 PS=1.72e-06
mXI40/XI0/MM2 XI40/XI0/NET15 N_NET063_XI40/XI0/MM2_g N_VDD!_XI40/XI0/MM2_s
+ N_VDD!_XI59/XI1/MM0_b PMOS_VTG L=5e-08 W=1.56e-06 AD=2.184e-13 AS=1.515e-13
+ PD=3.4e-06 PS=3.32e-06
mXI40/XI0/MM3 N_XI40/NET7_XI40/XI0/MM3_d N_NET073_XI40/XI0/MM3_g XI40/XI0/NET15
+ N_VDD!_XI59/XI1/MM0_b PMOS_VTG L=5e-08 W=1.56e-06 AD=1.4625e-13 AS=2.184e-13
+ PD=3.32e-06 PS=3.4e-06
mXI40/XI1/MM1 N_NET077_XI40/XI1/MM1_d N_XI40/NET7_XI40/XI1/MM1_g
+ N_GND!_XI40/XI1/MM1_s N_GND!_XI59/XI1/MM1_b NMOS_VTG L=5e-08 W=1.44e-06
+ AD=1.161e-13 AS=1.0845e-13 PD=3.36e-06 PS=3.19e-06
mXI40/XI1/MM0 N_NET077_XI40/XI1/MM0_d N_XI40/NET7_XI40/XI1/MM0_g
+ N_VDD!_XI40/XI1/MM0_s N_VDD!_XI59/XI1/MM0_b PMOS_VTG L=5e-08 W=1.96e-06
+ AD=1.6015e-13 AS=1.57e-13 PD=4.57e-06 PS=4.5e-06
mXI73/XI0/MM1 N_XI73/NET7_XI73/XI0/MM1_d N_NET0158_XI73/XI0/MM1_g
+ N_GND!_XI73/XI0/MM1_s N_GND!_XI91/XI1/MM1_b NMOS_VTG L=5e-08 W=7.2e-07
+ AD=5.85e-14 AS=1.008e-13 PD=1.76e-06 PS=1.72e-06
mXI73/XI0/MM0 N_XI73/NET7_XI73/XI0/MM0_d N_NET0156_XI73/XI0/MM0_g
+ N_GND!_XI73/XI0/MM1_s N_GND!_XI91/XI1/MM1_b NMOS_VTG L=5e-08 W=7.2e-07
+ AD=5.31e-14 AS=1.008e-13 PD=1.64e-06 PS=1.72e-06
mXI73/XI0/MM2 XI73/XI0/NET15 N_NET0158_XI73/XI0/MM2_g N_VDD!_XI73/XI0/MM2_s
+ N_VDD!_XI91/XI1/MM0_b PMOS_VTG L=5e-08 W=1.56e-06 AD=2.184e-13 AS=1.515e-13
+ PD=3.4e-06 PS=3.32e-06
mXI73/XI0/MM3 N_XI73/NET7_XI73/XI0/MM3_d N_NET0156_XI73/XI0/MM3_g XI73/XI0/NET15
+ N_VDD!_XI91/XI1/MM0_b PMOS_VTG L=5e-08 W=1.56e-06 AD=1.4625e-13 AS=2.184e-13
+ PD=3.32e-06 PS=3.4e-06
mXI73/XI1/MM1 N_NET0140_XI73/XI1/MM1_d N_XI73/NET7_XI73/XI1/MM1_g
+ N_GND!_XI73/XI1/MM1_s N_GND!_XI91/XI1/MM1_b NMOS_VTG L=5e-08 W=1.44e-06
+ AD=1.161e-13 AS=1.0845e-13 PD=3.36e-06 PS=3.19e-06
mXI73/XI1/MM0 N_NET0140_XI73/XI1/MM0_d N_XI73/NET7_XI73/XI1/MM0_g
+ N_VDD!_XI73/XI1/MM0_s N_VDD!_XI91/XI1/MM0_b PMOS_VTG L=5e-08 W=1.96e-06
+ AD=1.6015e-13 AS=1.57e-13 PD=4.57e-06 PS=4.5e-06
mXI74/XI0/MM1 N_XI74/NET7_XI74/XI0/MM1_d N_NET0126_XI74/XI0/MM1_g
+ N_GND!_XI74/XI0/MM1_s N_GND!_XI91/XI1/MM1_b NMOS_VTG L=5e-08 W=7.2e-07
+ AD=5.85e-14 AS=1.008e-13 PD=1.76e-06 PS=1.72e-06
mXI74/XI0/MM0 N_XI74/NET7_XI74/XI0/MM0_d N_NET0140_XI74/XI0/MM0_g
+ N_GND!_XI74/XI0/MM1_s N_GND!_XI91/XI1/MM1_b NMOS_VTG L=5e-08 W=7.2e-07
+ AD=5.31e-14 AS=1.008e-13 PD=1.64e-06 PS=1.72e-06
mXI74/XI0/MM2 XI74/XI0/NET15 N_NET0126_XI74/XI0/MM2_g N_VDD!_XI74/XI0/MM2_s
+ N_VDD!_XI91/XI1/MM0_b PMOS_VTG L=5e-08 W=1.56e-06 AD=2.184e-13 AS=1.515e-13
+ PD=3.4e-06 PS=3.32e-06
mXI74/XI0/MM3 N_XI74/NET7_XI74/XI0/MM3_d N_NET0140_XI74/XI0/MM3_g XI74/XI0/NET15
+ N_VDD!_XI91/XI1/MM0_b PMOS_VTG L=5e-08 W=1.56e-06 AD=1.4625e-13 AS=2.184e-13
+ PD=3.32e-06 PS=3.4e-06
mXI74/XI1/MM1 N_NET0137_XI74/XI1/MM1_d N_XI74/NET7_XI74/XI1/MM1_g
+ N_GND!_XI74/XI1/MM1_s N_GND!_XI91/XI1/MM1_b NMOS_VTG L=5e-08 W=1.44e-06
+ AD=1.161e-13 AS=1.0845e-13 PD=3.36e-06 PS=3.19e-06
mXI74/XI1/MM0 N_NET0137_XI74/XI1/MM0_d N_XI74/NET7_XI74/XI1/MM0_g
+ N_VDD!_XI74/XI1/MM0_s N_VDD!_XI91/XI1/MM0_b PMOS_VTG L=5e-08 W=1.96e-06
+ AD=1.6015e-13 AS=1.57e-13 PD=4.57e-06 PS=4.5e-06
mXI38/XI0/MM1 N_XI38/NET7_XI38/XI0/MM1_d N_NET076_XI38/XI0/MM1_g
+ N_GND!_XI38/XI0/MM1_s N_GND!_XI59/XI1/MM1_b NMOS_VTG L=5e-08 W=7.2e-07
+ AD=5.85e-14 AS=1.008e-13 PD=1.76e-06 PS=1.72e-06
mXI38/XI0/MM0 N_XI38/NET7_XI38/XI0/MM0_d N_NET077_XI38/XI0/MM0_g
+ N_GND!_XI38/XI0/MM1_s N_GND!_XI59/XI1/MM1_b NMOS_VTG L=5e-08 W=7.2e-07
+ AD=5.31e-14 AS=1.008e-13 PD=1.64e-06 PS=1.72e-06
mXI38/XI0/MM2 XI38/XI0/NET15 N_NET076_XI38/XI0/MM2_g N_VDD!_XI38/XI0/MM2_s
+ N_VDD!_XI59/XI1/MM0_b PMOS_VTG L=5e-08 W=1.56e-06 AD=2.184e-13 AS=1.515e-13
+ PD=3.4e-06 PS=3.32e-06
mXI38/XI0/MM3 N_XI38/NET7_XI38/XI0/MM3_d N_NET077_XI38/XI0/MM3_g XI38/XI0/NET15
+ N_VDD!_XI59/XI1/MM0_b PMOS_VTG L=5e-08 W=1.56e-06 AD=1.4625e-13 AS=2.184e-13
+ PD=3.32e-06 PS=3.4e-06
mXI38/XI1/MM1 N_NET19_XI38/XI1/MM1_d N_XI38/NET7_XI38/XI1/MM1_g
+ N_GND!_XI38/XI1/MM1_s N_GND!_XI59/XI1/MM1_b NMOS_VTG L=5e-08 W=1.44e-06
+ AD=1.161e-13 AS=1.0845e-13 PD=3.36e-06 PS=3.19e-06
mXI38/XI1/MM0 N_NET19_XI38/XI1/MM0_d N_XI38/NET7_XI38/XI1/MM0_g
+ N_VDD!_XI38/XI1/MM0_s N_VDD!_XI59/XI1/MM0_b PMOS_VTG L=5e-08 W=1.96e-06
+ AD=1.6015e-13 AS=1.57e-13 PD=4.57e-06 PS=4.5e-06
mXI41/XI0/MM1 N_XI41/NET7_XI41/XI0/MM1_d N_A<4>_XI41/XI0/MM1_g
+ N_GND!_XI41/XI0/MM1_s N_GND!_XI59/XI1/MM1_b NMOS_VTG L=5e-08 W=7.2e-07
+ AD=5.85e-14 AS=1.008e-13 PD=1.76e-06 PS=1.72e-06
mXI41/XI0/MM0 N_XI41/NET7_XI41/XI0/MM0_d N_B<4>_XI41/XI0/MM0_g
+ N_GND!_XI41/XI0/MM1_s N_GND!_XI59/XI1/MM1_b NMOS_VTG L=5e-08 W=7.2e-07
+ AD=5.31e-14 AS=1.008e-13 PD=1.64e-06 PS=1.72e-06
mXI41/XI0/MM2 XI41/XI0/NET15 N_A<4>_XI41/XI0/MM2_g N_VDD!_XI41/XI0/MM2_s
+ N_VDD!_XI59/XI1/MM0_b PMOS_VTG L=5e-08 W=1.56e-06 AD=2.184e-13 AS=1.515e-13
+ PD=3.4e-06 PS=3.32e-06
mXI41/XI0/MM3 N_XI41/NET7_XI41/XI0/MM3_d N_B<4>_XI41/XI0/MM3_g XI41/XI0/NET15
+ N_VDD!_XI59/XI1/MM0_b PMOS_VTG L=5e-08 W=1.56e-06 AD=1.4625e-13 AS=2.184e-13
+ PD=3.32e-06 PS=3.4e-06
mXI41/XI1/MM1 N_NET081_XI41/XI1/MM1_d N_XI41/NET7_XI41/XI1/MM1_g
+ N_GND!_XI41/XI1/MM1_s N_GND!_XI59/XI1/MM1_b NMOS_VTG L=5e-08 W=1.44e-06
+ AD=1.161e-13 AS=1.0845e-13 PD=3.36e-06 PS=3.19e-06
mXI41/XI1/MM0 N_NET081_XI41/XI1/MM0_d N_XI41/NET7_XI41/XI1/MM0_g
+ N_VDD!_XI41/XI1/MM0_s N_VDD!_XI59/XI1/MM0_b PMOS_VTG L=5e-08 W=1.96e-06
+ AD=1.6015e-13 AS=1.57e-13 PD=4.57e-06 PS=4.5e-06
mXI75/XI0/MM1 N_XI75/NET7_XI75/XI0/MM1_d N_NET0128_XI75/XI0/MM1_g
+ N_GND!_XI75/XI0/MM1_s N_GND!_XI91/XI1/MM1_b NMOS_VTG L=5e-08 W=7.2e-07
+ AD=5.85e-14 AS=1.008e-13 PD=1.76e-06 PS=1.72e-06
mXI75/XI0/MM0 N_XI75/NET7_XI75/XI0/MM0_d N_NET0137_XI75/XI0/MM0_g
+ N_GND!_XI75/XI0/MM1_s N_GND!_XI91/XI1/MM1_b NMOS_VTG L=5e-08 W=7.2e-07
+ AD=5.31e-14 AS=1.008e-13 PD=1.64e-06 PS=1.72e-06
mXI75/XI0/MM2 XI75/XI0/NET15 N_NET0128_XI75/XI0/MM2_g N_VDD!_XI75/XI0/MM2_s
+ N_VDD!_XI91/XI1/MM0_b PMOS_VTG L=5e-08 W=1.56e-06 AD=2.184e-13 AS=1.515e-13
+ PD=3.4e-06 PS=3.32e-06
mXI75/XI0/MM3 N_XI75/NET7_XI75/XI0/MM3_d N_NET0137_XI75/XI0/MM3_g XI75/XI0/NET15
+ N_VDD!_XI91/XI1/MM0_b PMOS_VTG L=5e-08 W=1.56e-06 AD=1.4625e-13 AS=2.184e-13
+ PD=3.32e-06 PS=3.4e-06
mXI75/XI1/MM1 N_NET0134_XI75/XI1/MM1_d N_XI75/NET7_XI75/XI1/MM1_g
+ N_GND!_XI75/XI1/MM1_s N_GND!_XI91/XI1/MM1_b NMOS_VTG L=5e-08 W=1.44e-06
+ AD=1.161e-13 AS=1.0845e-13 PD=3.36e-06 PS=3.19e-06
mXI75/XI1/MM0 N_NET0134_XI75/XI1/MM0_d N_XI75/NET7_XI75/XI1/MM0_g
+ N_VDD!_XI75/XI1/MM0_s N_VDD!_XI91/XI1/MM0_b PMOS_VTG L=5e-08 W=1.96e-06
+ AD=1.6015e-13 AS=1.57e-13 PD=4.57e-06 PS=4.5e-06
mXI76/XI0/MM1 N_XI76/NET7_XI76/XI0/MM1_d N_NET0132_XI76/XI0/MM1_g
+ N_GND!_XI76/XI0/MM1_s N_GND!_XI91/XI1/MM1_b NMOS_VTG L=5e-08 W=7.2e-07
+ AD=5.85e-14 AS=1.008e-13 PD=1.76e-06 PS=1.72e-06
mXI76/XI0/MM0 N_XI76/NET7_XI76/XI0/MM0_d N_NET0134_XI76/XI0/MM0_g
+ N_GND!_XI76/XI0/MM1_s N_GND!_XI91/XI1/MM1_b NMOS_VTG L=5e-08 W=7.2e-07
+ AD=5.31e-14 AS=1.008e-13 PD=1.64e-06 PS=1.72e-06
mXI76/XI0/MM2 XI76/XI0/NET15 N_NET0132_XI76/XI0/MM2_g N_VDD!_XI76/XI0/MM2_s
+ N_VDD!_XI91/XI1/MM0_b PMOS_VTG L=5e-08 W=1.56e-06 AD=2.184e-13 AS=1.515e-13
+ PD=3.4e-06 PS=3.32e-06
mXI76/XI0/MM3 N_XI76/NET7_XI76/XI0/MM3_d N_NET0134_XI76/XI0/MM3_g XI76/XI0/NET15
+ N_VDD!_XI91/XI1/MM0_b PMOS_VTG L=5e-08 W=1.56e-06 AD=1.4625e-13 AS=2.184e-13
+ PD=3.32e-06 PS=3.4e-06
mXI76/XI1/MM1 N_NET7_XI76/XI1/MM1_d N_XI76/NET7_XI76/XI1/MM1_g
+ N_GND!_XI76/XI1/MM1_s N_GND!_XI91/XI1/MM1_b NMOS_VTG L=5e-08 W=1.44e-06
+ AD=1.161e-13 AS=1.0845e-13 PD=3.36e-06 PS=3.19e-06
mXI76/XI1/MM0 N_NET7_XI76/XI1/MM0_d N_XI76/NET7_XI76/XI1/MM0_g
+ N_VDD!_XI76/XI1/MM0_s N_VDD!_XI91/XI1/MM0_b PMOS_VTG L=5e-08 W=1.96e-06
+ AD=1.6015e-13 AS=1.57e-13 PD=4.57e-06 PS=4.5e-06
mXI50/XI0/MM0 N_XI50/NET7_XI50/XI0/MM0_d N_NET082_XI50/XI0/MM0_g
+ N_GND!_XI50/XI0/MM0_s N_GND!_XI59/XI1/MM1_b NMOS_VTG L=5e-08 W=7.2e-07
+ AD=5.85e-14 AS=1.008e-13 PD=1.76e-06 PS=1.72e-06
mXI50/XI0/MM1 N_XI50/NET7_XI50/XI0/MM1_d N_NET061_XI50/XI0/MM1_g
+ N_GND!_XI50/XI0/MM0_s N_GND!_XI59/XI1/MM1_b NMOS_VTG L=5e-08 W=7.2e-07
+ AD=5.31e-14 AS=1.008e-13 PD=1.64e-06 PS=1.72e-06
mXI50/XI0/MM3 XI50/XI0/NET15 N_NET082_XI50/XI0/MM3_g N_VDD!_XI50/XI0/MM3_s
+ N_VDD!_XI59/XI1/MM0_b PMOS_VTG L=5e-08 W=1.56e-06 AD=2.184e-13 AS=1.515e-13
+ PD=3.4e-06 PS=3.32e-06
mXI50/XI0/MM2 N_XI50/NET7_XI50/XI0/MM2_d N_NET061_XI50/XI0/MM2_g XI50/XI0/NET15
+ N_VDD!_XI59/XI1/MM0_b PMOS_VTG L=5e-08 W=1.56e-06 AD=1.4625e-13 AS=2.184e-13
+ PD=3.32e-06 PS=3.4e-06
mXI50/XI1/MM1 N_NET066_XI50/XI1/MM1_d N_XI50/NET7_XI50/XI1/MM1_g
+ N_GND!_XI50/XI1/MM1_s N_GND!_XI59/XI1/MM1_b NMOS_VTG L=5e-08 W=1.44e-06
+ AD=1.161e-13 AS=1.0845e-13 PD=3.36e-06 PS=3.19e-06
mXI50/XI1/MM0 N_NET066_XI50/XI1/MM0_d N_XI50/NET7_XI50/XI1/MM0_g
+ N_VDD!_XI50/XI1/MM0_s N_VDD!_XI59/XI1/MM0_b PMOS_VTG L=5e-08 W=1.96e-06
+ AD=1.6015e-13 AS=1.57e-13 PD=4.57e-06 PS=4.5e-06
mXI49/XI0/MM0 N_XI49/NET7_XI49/XI0/MM0_d N_NET096_XI49/XI0/MM0_g
+ N_GND!_XI49/XI0/MM0_s N_GND!_XI59/XI1/MM1_b NMOS_VTG L=5e-08 W=7.2e-07
+ AD=5.85e-14 AS=1.008e-13 PD=1.76e-06 PS=1.72e-06
mXI49/XI0/MM1 N_XI49/NET7_XI49/XI0/MM1_d N_NET066_XI49/XI0/MM1_g
+ N_GND!_XI49/XI0/MM0_s N_GND!_XI59/XI1/MM1_b NMOS_VTG L=5e-08 W=7.2e-07
+ AD=5.31e-14 AS=1.008e-13 PD=1.64e-06 PS=1.72e-06
mXI49/XI0/MM3 XI49/XI0/NET15 N_NET096_XI49/XI0/MM3_g N_VDD!_XI49/XI0/MM3_s
+ N_VDD!_XI59/XI1/MM0_b PMOS_VTG L=5e-08 W=1.56e-06 AD=2.184e-13 AS=1.515e-13
+ PD=3.4e-06 PS=3.32e-06
mXI49/XI0/MM2 N_XI49/NET7_XI49/XI0/MM2_d N_NET066_XI49/XI0/MM2_g XI49/XI0/NET15
+ N_VDD!_XI59/XI1/MM0_b PMOS_VTG L=5e-08 W=1.56e-06 AD=1.4625e-13 AS=2.184e-13
+ PD=3.32e-06 PS=3.4e-06
mXI49/XI1/MM1 N_NET070_XI49/XI1/MM1_d N_XI49/NET7_XI49/XI1/MM1_g
+ N_GND!_XI49/XI1/MM1_s N_GND!_XI59/XI1/MM1_b NMOS_VTG L=5e-08 W=1.44e-06
+ AD=1.161e-13 AS=1.0845e-13 PD=3.36e-06 PS=3.19e-06
mXI49/XI1/MM0 N_NET070_XI49/XI1/MM0_d N_XI49/NET7_XI49/XI1/MM0_g
+ N_VDD!_XI49/XI1/MM0_s N_VDD!_XI59/XI1/MM0_b PMOS_VTG L=5e-08 W=1.96e-06
+ AD=1.6015e-13 AS=1.57e-13 PD=4.57e-06 PS=4.5e-06
mXI78/XI0/MM1 N_XI78/NET7_XI78/XI0/MM1_d N_A<7>_XI78/XI0/MM1_g
+ N_GND!_XI78/XI0/MM1_s N_GND!_XI91/XI1/MM1_b NMOS_VTG L=5e-08 W=7.2e-07
+ AD=5.85e-14 AS=1.008e-13 PD=1.76e-06 PS=1.72e-06
mXI78/XI0/MM0 N_XI78/NET7_XI78/XI0/MM0_d N_B<7>_XI78/XI0/MM0_g
+ N_GND!_XI78/XI0/MM1_s N_GND!_XI91/XI1/MM1_b NMOS_VTG L=5e-08 W=7.2e-07
+ AD=5.31e-14 AS=1.008e-13 PD=1.64e-06 PS=1.72e-06
mXI78/XI0/MM2 XI78/XI0/NET15 N_A<7>_XI78/XI0/MM2_g N_VDD!_XI78/XI0/MM2_s
+ N_VDD!_XI91/XI1/MM0_b PMOS_VTG L=5e-08 W=1.56e-06 AD=2.184e-13 AS=1.515e-13
+ PD=3.4e-06 PS=3.32e-06
mXI78/XI0/MM3 N_XI78/NET7_XI78/XI0/MM3_d N_B<7>_XI78/XI0/MM3_g XI78/XI0/NET15
+ N_VDD!_XI91/XI1/MM0_b PMOS_VTG L=5e-08 W=1.56e-06 AD=1.4625e-13 AS=2.184e-13
+ PD=3.32e-06 PS=3.4e-06
mXI78/XI1/MM1 N_NET0150_XI78/XI1/MM1_d N_XI78/NET7_XI78/XI1/MM1_g
+ N_GND!_XI78/XI1/MM1_s N_GND!_XI91/XI1/MM1_b NMOS_VTG L=5e-08 W=1.44e-06
+ AD=1.161e-13 AS=1.0845e-13 PD=3.36e-06 PS=3.19e-06
mXI78/XI1/MM0 N_NET0150_XI78/XI1/MM0_d N_XI78/NET7_XI78/XI1/MM0_g
+ N_VDD!_XI78/XI1/MM0_s N_VDD!_XI91/XI1/MM0_b PMOS_VTG L=5e-08 W=1.96e-06
+ AD=1.6015e-13 AS=1.57e-13 PD=4.57e-06 PS=4.5e-06
mXI86/XI0/MM1 N_XI86/NET7_XI86/XI0/MM1_d N_NET0152_XI86/XI0/MM1_g
+ N_GND!_XI86/XI0/MM1_s N_GND!_XI91/XI1/MM1_b NMOS_VTG L=5e-08 W=7.2e-07