* File: LOOKAHEAD.pex.netlist.pex
* Created: Thu Jun  6 12:29:26 2013
* Program "Calibre xRC"
* Version "v2011.4_35.27"
* Nominal Temperature: 27C
* Circuit Temperature: 27C
* 
.subckt PM_LOOKAHEAD%XI59/NET7 1 2 5 8 10 13 16 21 28 32 34 36 38 40 43 44
c94 44 0 4.92706e-19
c95 43 0 0.00717442f
c96 40 0 0.00265561f
c97 38 0 0.00527191f
c98 36 0 0.0114746f
c99 34 0 0.00521316f
c100 32 0 0.00764417f
c101 28 0 0.0230334f
c102 21 0 0.00627656f
c103 16 0 0.00920132f
c104 13 0 0.00492564f
c105 10 0 0.104993f
c106 8 0 0.00609006f
c107 1 0 0.140526f
r108 39 40 0.38
r109 35 44 0.0418175
r110 35 36 1.81231
r111 34 43 0.789231
r112 33 44 0.160909
r113 33 34 1.18385
r114 32 44 0.160909
r115 31 40 0.0223169
r116 31 32 1.60769
r117 28 43 2.87923
r118 23 39 0.0223169
r119 22 38 0.0418175
r120 21 39 0.19
r121 21 22 1.81231
r122 15 38 0.160909
r123 15 16 0.391692
r124 13 23 0.391692
r125 8 10 4.7687
r126 8 36 89.3538
r127 5 10 120.12
r128 1 8 4.7687
r129 1 2 160.68
.ends

.subckt PM_LOOKAHEAD%XI91/NET7 1 2 5 8 10 13 16 21 28 32 34 36 38 40 43 44
c113 44 0 4.92706e-19
c114 43 0 0.00694223f
c115 40 0 0.00230863f
c116 38 0 0.00467642f
c117 36 0 0.0111948f
c118 34 0 0.00473608f
c119 32 0 0.00620032f
c120 28 0 0.0344276f
c121 21 0 0.00621457f
c122 16 0 0.00687685f
c123 13 0 0.00443248f
c124 10 0 0.104675f
c125 8 0 0.00631392f
c126 1 0 0.139998f
r127 39 40 0.38
r128 35 44 0.0418175
r129 35 36 1.81231
r130 34 43 0.789231
r131 33 44 0.160909
r132 33 34 1.18385
r133 32 44 0.160909
r134 31 40 0.0223169
r135 31 32 1.60769
r136 28 43 2.87923
r137 23 39 0.0223169
r138 22 38 0.0418175
r139 21 39 0.19
r140 21 22 1.81231
r141 15 38 0.160909
r142 15 16 0.391692
r143 13 23 0.391692
r144 8 10 4.7687
r145 8 36 89.3538
r146 5 10 120.12
r147 1 8 4.7687
r148 1 2 160.68
.ends

.subckt PM_LOOKAHEAD%XI92/NET7 1 2 5 8 10 13 16 21 28 32 34 36 38 40 43 44
c90 44 0 4.92706e-19
c91 43 0 0.00760272f
c92 40 0 0.00273647f
c93 38 0 0.0050158f
c94 36 0 0.0114746f
c95 34 0 0.00500615f
c96 32 0 0.00757909f
c97 28 0 0.0344276f
c98 21 0 0.00643756f
c99 16 0 0.00757899f
c100 13 0 0.00382693f
c101 10 0 0.104993f
c102 8 0 0.00609006f
c103 1 0 0.140694f
r104 39 40 0.38
r105 35 44 0.0418175
r106 35 36 1.81231
r107 34 43 0.789231
r108 33 44 0.160909
r109 33 34 1.18385
r110 32 44 0.160909
r111 31 40 0.0223169
r112 31 32 1.60769
r113 28 43 2.87923
r114 23 39 0.0223169
r115 22 38 0.0418175
r116 21 39 0.19
r117 21 22 1.81231
r118 15 38 0.160909
r119 15 16 0.391692
r120 13 23 0.391692
r121 8 10 4.7687
r122 8 36 89.3538
r123 5 10 120.12
r124 1 8 4.7687
r125 1 2 160.68
.ends

.subckt PM_LOOKAHEAD%XI20/NET7 1 2 5 8 10 13 16 21 28 32 34 36 38 40 43 44
c147 44 0 0.0010051f
c148 43 0 0.0056483f
c149 40 0 0.00180101f
c150 38 0 0.00429711f
c151 36 0 0.0111948f
c152 34 0 0.00590146f
c153 32 0 0.0071085f
c154 28 0 0.026548f
c155 21 0 0.00468993f
c156 16 0 0.00499494f
c157 13 0 0.00450155f
c158 10 0 0.101264f
c159 8 0 0.00620777f
c160 1 0 0.131726f
r161 39 40 0.38
r162 35 44 0.0418175
r163 35 36 1.81231
r164 34 43 0.789231
r165 33 44 0.160909
r166 33 34 1.18385
r167 32 44 0.160909
r168 31 40 0.0223169
r169 31 32 1.60769
r170 28 43 2.87923
r171 23 39 0.0223169
r172 22 38 0.0418175
r173 21 39 0.19
r174 21 22 1.81231
r175 15 38 0.160909
r176 15 16 0.391692
r177 13 23 0.391692
r178 8 10 4.7687
r179 8 36 89.3538
r180 5 10 120.12
r181 1 8 4.7687
r182 1 2 160.68
.ends

.subckt PM_LOOKAHEAD%XI22/NET7 1 2 5 8 10 13 16 21 28 32 34 36 38 40 43 44
c149 44 0 4.92706e-19
c150 43 0 0.00653739f
c151 40 0 0.00242506f
c152 38 0 0.00381708f
c153 36 0 0.0115211f
c154 34 0 0.00543218f
c155 32 0 0.00535536f
c156 28 0 0.0267613f
c157 21 0 0.00468993f
c158 16 0 0.00437311f
c159 13 0 0.00375326f
c160 10 0 0.0983992f
c161 8 0 0.00593856f
c162 1 0 0.130839f
r163 39 40 0.38
r164 35 44 0.0418175
r165 35 36 1.81231
r166 34 43 0.789231
r167 33 44 0.160909
r168 33 34 1.18385
r169 32 44 0.160909
r170 31 40 0.0223169
r171 31 32 1.60769
r172 28 43 2.87923
r173 23 39 0.0223169
r174 22 38 0.0418175
r175 21 39 0.19
r176 21 22 1.81231
r177 15 38 0.160909
r178 15 16 0.391692
r179 13 23 0.391692
r180 8 10 4.7687
r181 8 36 89.3538
r182 5 10 120.12
r183 1 8 4.7687
r184 1 2 160.68
.ends

.subckt PM_LOOKAHEAD%XI61/NET7 1 2 5 8 10 13 16 21 28 32 34 36 38 40 43 44
c145 44 0 4.63202e-19
c146 43 0 0.00780085f
c147 40 0 0.00165136f
c148 38 0 0.00398417f
c149 36 0 0.009113f
c150 34 0 0.00557216f
c151 32 0 0.00611119f
c152 28 0 0.0296667f
c153 21 0 0.00521633f
c154 16 0 0.00460884f
c155 13 0 0.00343487f
c156 10 0 0.099466f
c157 8 0 0.00613138f
c158 1 0 0.133462f
r159 39 40 0.38
r160 35 44 0.0418175
r161 35 36 1.81231
r162 34 43 0.789231
r163 33 44 0.160909
r164 33 34 1.18385
r165 32 44 0.160909
r166 31 40 0.0223169
r167 31 32 1.60769
r168 28 43 2.87923
r169 23 39 0.0223169
r170 22 38 0.0418175
r171 21 39 0.19
r172 21 22 1.81231
r173 15 38 0.160909
r174 15 16 0.391692
r175 13 23 0.391692
r176 8 10 4.7687
r177 8 36 89.3538
r178 5 10 120.12
r179 1 8 4.7687
r180 1 2 160.68
.ends

.subckt PM_LOOKAHEAD%XI60/NET7 1 2 5 8 10 13 16 21 28 32 34 36 38 40 43 44
c144 44 0 4.63202e-19
c145 43 0 0.00769527f
c146 40 0 0.00165136f
c147 38 0 0.00403396f
c148 36 0 0.009113f
c149 34 0 0.00460361f
c150 32 0 0.00624161f
c151 28 0 0.0296667f
c152 21 0 0.00523771f
c153 16 0 0.00571442f
c154 13 0 0.00343487f
c155 10 0 0.100343f
c156 8 0 0.00613138f
c157 1 0 0.133462f
r158 39 40 0.38
r159 35 44 0.0418175
r160 35 36 1.81231
r161 34 43 0.789231
r162 33 44 0.160909
r163 33 34 1.18385
r164 32 44 0.160909
r165 31 40 0.0223169
r166 31 32 1.60769
r167 28 43 2.87923
r168 23 39 0.0223169
r169 22 38 0.0418175
r170 21 39 0.19
r171 21 22 1.81231
r172 15 38 0.160909
r173 15 16 0.391692
r174 13 23 0.391692
r175 8 10 4.7687
r176 8 36 89.3538
r177 5 10 120.12
r178 1 8 4.7687
r179 1 2 160.68
.ends

.subckt PM_LOOKAHEAD%XI24/NET7 1 2 5 8 10 13 16 21 28 32 34 36 38 40 43 44
c143 44 0 4.92706e-19
c144 43 0 0.00613284f
c145 40 0 0.00223252f
c146 38 0 0.00292251f
c147 36 0 0.0111553f
c148 34 0 0.00466436f
c149 32 0 0.00482387f
c150 28 0 0.0249054f
c151 21 0 0.00566172f
c152 16 0 0.00289275f
c153 13 0 0.0032051f
c154 10 0 0.101794f
c155 8 0 0.00609006f
c156 1 0 0.1317f
r157 39 40 0.38
r158 35 44 0.0418175
r159 35 36 1.81231
r160 34 43 0.789231
r161 33 44 0.160909
r162 33 34 1.18385
r163 32 44 0.160909
r164 31 40 0.0223169
r165 31 32 1.60769
r166 28 43 2.87923
r167 23 39 0.0223169
r168 22 38 0.0418175
r169 21 39 0.19
r170 21 22 1.81231
r171 15 38 0.160909
r172 15 16 0.391692
r173 13 23 0.391692
r174 8 10 4.7687
r175 8 36 89.3538
r176 5 10 120.12
r177 1 8 4.7687
r178 1 2 160.68
.ends

.subckt PM_LOOKAHEAD%XI31/NET7 1 2 5 8 10 13 16 21 28 32 34 36 38 40 43 44
c146 44 0 4.84201e-19
c147 43 0 0.0052533f
c148 40 0 0.00212699f
c149 38 0 0.00370305f
c150 36 0 0.0106679f
c151 34 0 0.00454534f
c152 32 0 0.00430057f
c153 28 0 0.0178906f
c154 21 0 0.00491039f
c155 16 0 0.00578129f
c156 13 0 0.00378424f
c157 10 0 0.104086f
c158 8 0 0.00621389f
c159 1 0 0.131726f
r160 39 40 0.38
r161 35 44 0.0418175
r162 35 36 1.81231
r163 34 43 0.789231
r164 33 44 0.160909
r165 33 34 1.18385
r166 32 44 0.160909
r167 31 40 0.0223169
r168 31 32 1.60769
r169 28 43 2.87923
r170 23 39 0.0223169
r171 22 38 0.0418175
r172 21 39 0.19
r173 21 22 1.81231
r174 15 38 0.160909
r175 15 16 0.391692
r176 13 23 0.391692
r177 8 10 4.7687
r178 8 36 89.3538
r179 5 10 120.12
r180 1 8 4.7687
r181 1 2 160.68
.ends

.subckt PM_LOOKAHEAD%XI62/NET7 1 2 5 8 10 13 16 21 28 32 34 36 38 40 43 44
c141 44 0 4.63202e-19
c142 43 0 0.0077622f
c143 40 0 0.00165136f
c144 38 0 0.00411405f
c145 36 0 0.009113f
c146 34 0 0.00517498f
c147 32 0 0.00624161f
c148 28 0 0.0293085f
c149 21 0 0.00523771f
c150 16 0 0.00569869f
c151 13 0 0.00343487f
c152 10 0 0.100853f
c153 8 0 0.00613138f
c154 1 0 0.133462f
r155 39 40 0.38
r156 35 44 0.0418175
r157 35 36 1.81231
r158 34 43 0.789231
r159 33 44 0.160909
r160 33 34 1.18385
r161 32 44 0.160909
r162 31 40 0.0223169
r163 31 32 1.60769
r164 28 43 2.87923
r165 23 39 0.0223169
r166 22 38 0.0418175
r167 21 39 0.19
r168 21 22 1.81231
r169 15 38 0.160909
r170 15 16 0.391692
r171 13 23 0.391692
r172 8 10 4.7687
r173 8 36 89.3538
r174 5 10 120.12
r175 1 8 4.7687
r176 1 2 160.68
.ends

.subckt PM_LOOKAHEAD%XI63/NET7 1 2 5 8 10 13 16 21 28 32 34 36 38 40 43 44
c146 44 0 4.63202e-19
c147 43 0 0.00760208f
c148 40 0 0.00156446f
c149 38 0 0.00411405f
c150 36 0 0.009113f
c151 34 0 0.00558289f
c152 32 0 0.00671363f
c153 28 0 0.0272336f
c154 21 0 0.00521827f
c155 16 0 0.00569869f
c156 13 0 0.00327218f
c157 10 0 0.100863f
c158 8 0 0.00613138f
c159 1 0 0.132973f
r160 39 40 0.38
r161 35 44 0.0418175
r162 35 36 1.81231
r163 34 43 0.789231
r164 33 44 0.160909
r165 33 34 1.18385
r166 32 44 0.160909
r167 31 40 0.0223169
r168 31 32 1.60769
r169 28 43 2.87923
r170 23 39 0.0223169
r171 22 38 0.0418175
r172 21 39 0.19
r173 21 22 1.81231
r174 15 38 0.160909
r175 15 16 0.391692
r176 13 23 0.391692
r177 8 10 4.7687
r178 8 36 89.3538
r179 5 10 120.12
r180 1 8 4.7687
r181 1 2 160.68
.ends

.subckt PM_LOOKAHEAD%XI32/NET7 1 2 5 8 10 13 16 21 28 32 34 36 38 40 43 44
c136 44 0 4.92706e-19
c137 43 0 0.00591312f
c138 40 0 0.00192176f
c139 38 0 0.00353612f
c140 36 0 0.0107216f
c141 34 0 0.00484846f
c142 32 0 0.00578515f
c143 28 0 0.0197257f
c144 21 0 0.0061504f
c145 16 0 0.00505967f
c146 13 0 0.00299307f
c147 10 0 0.10478f
c148 8 0 0.00619468f
c149 1 0 0.131726f
r150 39 40 0.38
r151 35 44 0.0418175
r152 35 36 1.81231
r153 34 43 0.789231
r154 33 44 0.160909
r155 33 34 1.18385
r156 32 44 0.160909
r157 31 40 0.0223169
r158 31 32 1.60769
r159 28 43 2.87923
r160 23 39 0.0223169
r161 22 38 0.0418175
r162 21 39 0.19
r163 21 22 1.81231
r164 15 38 0.160909
r165 15 16 0.391692
r166 13 23 0.391692
r167 8 10 4.7687
r168 8 36 89.3538
r169 5 10 120.12
r170 1 8 4.7687
r171 1 2 160.68
.ends

.subckt PM_LOOKAHEAD%XI35/NET7 1 2 5 8 10 13 16 21 28 32 34 36 38 40 43 44
c125 44 0 4.92706e-19
c126 43 0 0.00616361f
c127 40 0 0.00265561f
c128 38 0 0.00452465f
c129 36 0 0.0111948f
c130 34 0 0.0054729f
c131 32 0 0.00659046f
c132 28 0 0.0258668f
c133 21 0 0.00628671f
c134 16 0 0.00698489f
c135 13 0 0.00370692f
c136 10 0 0.104805f
c137 8 0 0.00609006f
c138 1 0 0.131726f
r139 39 40 0.38
r140 35 44 0.0418175
r141 35 36 1.81231
r142 34 43 0.789231
r143 33 44 0.160909
r144 33 34 1.18385
r145 32 44 0.160909
r146 31 40 0.0223169
r147 31 32 1.60769
r148 28 43 2.87923
r149 23 39 0.0223169
r150 22 38 0.0418175
r151 21 39 0.19
r152 21 22 1.81231
r153 15 38 0.160909
r154 15 16 0.391692
r155 13 23 0.391692
r156 8 10 4.7687
r157 8 36 89.3538
r158 5 10 120.12
r159 1 8 4.7687
r160 1 2 160.68
.ends

.subckt PM_LOOKAHEAD%XI71/NET7 1 2 5 8 10 13 16 21 28 32 34 36 38 40 43 44
c144 44 0 5.40061e-19
c145 43 0 0.00662488f
c146 40 0 0.00187727f
c147 38 0 0.00385459f
c148 36 0 0.00880831f
c149 34 0 0.00461098f
c150 32 0 0.0080988f
c151 28 0 0.0190415f
c152 21 0 0.00550486f
c153 16 0 0.00520861f
c154 13 0 0.00355752f
c155 10 0 0.100862f
c156 8 0 0.00621636f
c157 1 0 0.135468f
r158 39 40 0.38
r159 35 44 0.0418175
r160 35 36 1.81231
r161 34 43 0.789231
r162 33 44 0.160909
r163 33 34 1.18385
r164 32 44 0.160909
r165 31 40 0.0223169
r166 31 32 1.60769
r167 28 43 2.87923
r168 23 39 0.0223169
r169 22 38 0.0418175
r170 21 39 0.19
r171 21 22 1.81231
r172 15 38 0.160909
r173 15 16 0.391692
r174 13 23 0.391692
r175 8 10 4.7687
r176 8 36 89.3538
r177 5 10 120.12
r178 1 8 4.7687
r179 1 2 160.68
.ends

.subckt PM_LOOKAHEAD%XI72/NET7 1 2 5 8 10 13 16 21 28 32 34 36 38 40 43 44
c133 44 0 4.63202e-19
c134 43 0 0.00683271f
c135 40 0 0.00186629f
c136 38 0 0.0041733f
c137 36 0 0.009113f
c138 34 0 0.00451353f
c139 32 0 0.00667837f
c140 28 0 0.0194648f
c141 21 0 0.00530389f
c142 16 0 0.0068779f
c143 13 0 0.00468588f
c144 10 0 0.100862f
c145 8 0 0.00613138f
c146 1 0 0.135988f
r147 39 40 0.38
r148 35 44 0.0418175
r149 35 36 1.81231
r150 34 43 0.789231
r151 33 44 0.160909
r152 33 34 1.18385
r153 32 44 0.160909
r154 31 40 0.0223169
r155 31 32 1.60769
r156 28 43 2.87923
r157 23 39 0.0223169
r158 22 38 0.0418175
r159 21 39 0.19
r160 21 22 1.81231
r161 15 38 0.160909
r162 15 16 0.391692
r163 13 23 0.391692
r164 8 10 4.7687
r165 8 36 89.3538
r166 5 10 120.12
r167 1 8 4.7687
r168 1 2 160.68
.ends

.subckt PM_LOOKAHEAD%XI39/NET7 1 2 5 8 10 13 16 21 28 32 34 36 38 40 43 44
c118 44 0 4.92706e-19
c119 43 0 0.00535976f
c120 40 0 0.00265561f
c121 38 0 0.00523247f
c122 36 0 0.0111948f
c123 34 0 0.0045698f
c124 32 0 0.00845889f
c125 28 0 0.0195946f
c126 21 0 0.00640096f
c127 16 0 0.00817777f
c128 13 0 0.00492564f
c129 10 0 0.104804f
c130 8 0 0.00609006f
c131 1 0 0.134021f
r132 39 40 0.38
r133 35 44 0.0418175
r134 35 36 1.81231
r135 34 43 0.789231
r136 33 44 0.160909
r137 33 34 1.18385
r138 32 44 0.160909
r139 31 40 0.0223169
r140 31 32 1.60769
r141 28 43 2.87923
r142 23 39 0.0223169
r143 22 38 0.0418175
r144 21 39 0.19
r145 21 22 1.81231
r146 15 38 0.160909
r147 15 16 0.391692
r148 13 23 0.391692
r149 8 10 4.7687
r150 8 36 89.3538
r151 5 10 120.12
r152 1 8 4.7687
r153 1 2 160.68
.ends

.subckt PM_LOOKAHEAD%XI40/NET7 1 2 5 8 10 13 16 21 28 32 34 36 38 40 43 44
c119 44 0 4.92706e-19
c120 43 0 0.00543033f
c121 40 0 0.00265561f
c122 38 0 0.00527191f
c123 36 0 0.0111948f
c124 34 0 0.00465925f
c125 32 0 0.0064729f
c126 28 0 0.0230274f
c127 21 0 0.00621659f
c128 16 0 0.00920132f
c129 13 0 0.00492564f
c130 10 0 0.104804f
c131 8 0 0.00609006f
c132 1 0 0.134603f
r133 39 40 0.38
r134 35 44 0.0418175
r135 35 36 1.81231
r136 34 43 0.789231
r137 33 44 0.160909
r138 33 34 1.18385
r139 32 44 0.160909
r140 31 40 0.0223169
r141 31 32 1.60769
r142 28 43 2.87923
r143 23 39 0.0223169
r144 22 38 0.0418175
r145 21 39 0.19
r146 21 22 1.81231
r147 15 38 0.160909
r148 15 16 0.391692
r149 13 23 0.391692
r150 8 10 4.7687
r151 8 36 89.3538
r152 5 10 120.12
r153 1 8 4.7687
r154 1 2 160.68
.ends

.subckt PM_LOOKAHEAD%XI73/NET7 1 2 5 8 10 13 16 21 28 32 34 36 38 40 43 44
c131 44 0 4.63202e-19
c132 43 0 0.00683271f
c133 40 0 0.00186629f
c134 38 0 0.00443495f
c135 36 0 0.009113f
c136 34 0 0.00451353f
c137 32 0 0.00667837f
c138 28 0 0.0196232f
c139 21 0 0.00530389f
c140 16 0 0.00765539f
c141 13 0 0.00468588f
c142 10 0 0.100862f
c143 8 0 0.00613138f
c144 1 0 0.136677f
r145 39 40 0.38
r146 35 44 0.0418175
r147 35 36 1.81231
r148 34 43 0.789231
r149 33 44 0.160909
r150 33 34 1.18385
r151 32 44 0.160909
r152 31 40 0.0223169
r153 31 32 1.60769
r154 28 43 2.87923
r155 23 39 0.0223169
r156 22 38 0.0418175
r157 21 39 0.19
r158 21 22 1.81231
r159 15 38 0.160909
r160 15 16 0.391692
r161 13 23 0.391692
r162 8 10 4.7687
r163 8 36 89.3538
r164 5 10 120.12
r165 1 8 4.7687
r166 1 2 160.68
.ends

.subckt PM_LOOKAHEAD%XI74/NET7 1 2 5 8 10 13 16 21 28 32 34 36 38 40 43 44
c130 44 0 4.63202e-19
c131 43 0 0.00683271f
c132 40 0 0.00186629f
c133 38 0 0.00443495f
c134 36 0 0.009113f
c135 34 0 0.00451353f
c136 32 0 0.00667837f
c137 28 0 0.0205221f
c138 21 0 0.00530389f
c139 16 0 0.00765539f
c140 13 0 0.00468588f
c141 10 0 0.100862f
c142 8 0 0.00613138f
c143 1 0 0.137534f
r144 39 40 0.38
r145 35 44 0.0418175
r146 35 36 1.81231
r147 34 43 0.789231
r148 33 44 0.160909
r149 33 34 1.18385
r150 32 44 0.160909
r151 31 40 0.0223169
r152 31 32 1.60769
r153 28 43 2.87923
r154 23 39 0.0223169
r155 22 38 0.0418175
r156 21 39 0.19
r157 21 22 1.81231
r158 15 38 0.160909
r159 15 16 0.391692
r160 13 23 0.391692
r161 8 10 4.7687
r162 8 36 89.3538
r163 5 10 120.12
r164 1 8 4.7687
r165 1 2 160.68
.ends

.subckt PM_LOOKAHEAD%XI38/NET7 1 2 5 8 10 13 16 21 28 32 34 36 38 40 43 44
c117 44 0 4.92706e-19
c118 43 0 0.00580411f
c119 40 0 0.00228617f
c120 38 0 0.00528461f
c121 36 0 0.0111948f
c122 34 0 0.00509911f
c123 32 0 0.0059348f
c124 28 0 0.0240303f
c125 21 0 0.00621659f
c126 16 0 0.00920132f
c127 13 0 0.00450806f
c128 10 0 0.104805f
c129 8 0 0.00609006f
c130 1 0 0.135155f
r131 39 40 0.38
r132 35 44 0.0418175
r133 35 36 1.81231
r134 34 43 0.789231
r135 33 44 0.160909
r136 33 34 1.18385
r137 32 44 0.160909
r138 31 40 0.0223169
r139 31 32 1.60769
r140 28 43 2.87923
r141 23 39 0.0223169
r142 22 38 0.0418175
r143 21 39 0.19
r144 21 22 1.81231
r145 15 38 0.160909
r146 15 16 0.391692
r147 13 23 0.391692
r148 8 10 4.7687
r149 8 36 89.3538
r150 5 10 120.12
r151 1 8 4.7687
r152 1 2 160.68
.ends

.subckt PM_LOOKAHEAD%XI41/NET7 1 2 5 8 10 13 16 21 28 32 34 36 38 40 43 44
c131 44 0 0.0010051f
c132 43 0 0.00584552f
c133 40 0 0.00175663f
c134 38 0 0.00425233f
c135 36 0 0.00937181f
c136 34 0 0.00476181f
c137 32 0 0.00693252f
c138 28 0 0.0336028f
c139 21 0 0.00620479f
c140 16 0 0.00632147f
c141 13 0 0.00369224f
c142 10 0 0.104167f
c143 8 0 0.00607202f
c144 1 0 0.12593f
r145 39 40 0.38
r146 35 44 0.0418175
r147 35 36 1.81231
r148 34 43 0.789231
r149 33 44 0.160909
r150 33 34 1.18385
r151 32 44 0.160909
r152 31 40 0.0223169
r153 31 32 1.60769
r154 28 43 2.87923
r155 23 39 0.0223169
r156 22 38 0.0418175
r157 21 39 0.19
r158 21 22 1.81231
r159 15 38 0.160909
r160 15 16 0.391692
r161 13 23 0.391692
r162 8 10 4.7687
r163 8 36 89.3538
r164 5 10 120.12
r165 1 8 4.7687
r166 1 2 160.68
.ends

.subckt PM_LOOKAHEAD%XI75/NET7 1 2 5 8 10 13 16 21 28 32 34 36 38 40 43 44
c128 44 0 4.63202e-19
c129 43 0 0.00683271f
c130 40 0 0.00186629f
c131 38 0 0.00443495f
c132 36 0 0.009113f
c133 34 0 0.00451353f
c134 32 0 0.00667837f
c135 28 0 0.022868f
c136 21 0 0.00530389f
c137 16 0 0.00765539f
c138 13 0 0.00468588f
c139 10 0 0.100861f
c140 8 0 0.00613138f
c141 1 0 0.138391f
r142 39 40 0.38
r143 35 44 0.0418175
r144 35 36 1.81231
r145 34 43 0.789231
r146 33 44 0.160909
r147 33 34 1.18385
r148 32 44 0.160909
r149 31 40 0.0223169
r150 31 32 1.60769
r151 28 43 2.87923
r152 23 39 0.0223169
r153 22 38 0.0418175
r154 21 39 0.19
r155 21 22 1.81231
r156 15 38 0.160909
r157 15 16 0.391692
r158 13 23 0.391692
r159 8 10 4.7687
r160 8 36 89.3538
r161 5 10 120.12
r162 1 8 4.7687
r163 1 2 160.68
.ends

.subckt PM_LOOKAHEAD%XI76/NET7 1 2 5 8 10 13 16 21 28 32 34 36 38 40 43 44
c126 44 0 4.63202e-19
c127 43 0 0.00709841f
c128 40 0 0.00165136f
c129 38 0 0.00443495f
c130 36 0 0.009113f
c131 34 0 0.00507417f
c132 32 0 0.00648503f
c133 28 0 0.0269748f
c134 21 0 0.00530389f
c135 16 0 0.00765539f
c136 13 0 0.004392f
c137 10 0 0.100399f
c138 8 0 0.00613138f
c139 1 0 0.138911f
r140 39 40 0.38
r141 35 44 0.0418175
r142 35 36 1.81231
r143 34 43 0.789231
r144 33 44 0.160909
r145 33 34 1.18385
r146 32 44 0.160909
r147 31 40 0.0223169
r148 31 32 1.60769
r149 28 43 2.87923
r150 23 39 0.0223169
r151 22 38 0.0418175
r152 21 39 0.19
r153 21 22 1.81231
r154 15 38 0.160909
r155 15 16 0.391692
r156 13 23 0.391692
r157 8 10 4.7687
r158 8 36 89.3538
r159 5 10 120.12
r160 1 8 4.7687
r161 1 2 160.68
.ends

.subckt PM_LOOKAHEAD%XI50/NET7 1 2 5 8 10 13 16 21 28 32 34 36 38 40 43 44
c134 44 0 3.00929e-19
c135 43 0 0.00524643f
c136 40 0 0.00265561f
c137 38 0 0.00502984f
c138 36 0 0.00788218f
c139 34 0 0.00471159f
c140 32 0 0.00769826f
c141 28 0 0.0172538f
c142 21 0 0.00600289f
c143 16 0 0.00518544f
c144 13 0 0.00370875f
c145 10 0 0.104173f
c146 8 0 0.00643987f
c147 1 0 0.137776f
r148 39 40 0.38
r149 35 44 0.0418175
r150 35 36 1.81231
r151 34 43 0.789231
r152 33 44 0.160909
r153 33 34 1.18385
r154 32 44 0.160909
r155 31 40 0.0223169
r156 31 32 1.60769
r157 28 43 2.87923
r158 23 39 0.0223169
r159 22 38 0.0418175
r160 21 39 0.19
r161 21 22 1.81231
r162 15 38 0.160909
r163 15 16 0.391692
r164 13 23 0.391692
r165 8 10 4.7687
r166 8 36 89.3538
r167 5 10 120.12
r168 1 8 4.7687
r169 1 2 160.68
.ends

.subckt PM_LOOKAHEAD%XI49/NET7 1 2 5 8 10 13 16 21 28 32 34 36 38 40 43 44
c126 44 0 4.92706e-19
c127 43 0 0.00516817f
c128 40 0 0.00265561f
c129 38 0 0.00423746f
c130 36 0 0.0115071f
c131 34 0 0.00383386f
c132 32 0 0.00597521f
c133 28 0 0.0193417f
c134 21 0 0.00633674f
c135 16 0 0.00818938f
c136 13 0 0.00492564f
c137 10 0 0.103215f
c138 8 0 0.00585802f
c139 1 0 0.135172f
r140 39 40 0.38
r141 35 44 0.0418175
r142 35 36 1.81231
r143 34 43 0.789231
r144 33 44 0.160909
r145 33 34 1.18385
r146 32 44 0.160909
r147 31 40 0.0223169
r148 31 32 1.60769
r149 28 43 2.87923
r150 23 39 0.0223169
r151 22 38 0.0418175
r152 21 39 0.19
r153 21 22 1.81231
r154 15 38 0.160909
r155 15 16 0.391692
r156 13 23 0.391692
r157 8 10 4.7687
r158 8 36 89.3538
r159 5 10 120.12
r160 1 8 4.7687
r161 1 2 160.68
.ends

.subckt PM_LOOKAHEAD%XI78/NET7 1 2 5 8 10 13 16 21 28 32 34 36 38 40 43 44
c125 44 0 4.63202e-19
c126 43 0 0.00760255f
c127 40 0 0.00186629f
c128 38 0 0.00403396f
c129 36 0 0.00909068f
c130 34 0 0.00558418f
c131 32 0 0.00674548f
c132 28 0 0.0309913f
c133 21 0 0.00529413f
c134 16 0 0.00569869f
c135 13 0 0.00382714f
c136 10 0 0.101545f
c137 8 0 0.00617108f
c138 1 0 0.139031f
r139 39 40 0.38
r140 35 44 0.0418175
r141 35 36 1.81231
r142 34 43 0.789231
r143 33 44 0.160909
r144 33 34 1.18385
r145 32 44 0.160909
r146 31 40 0.0223169
r147 31 32 1.60769
r148 28 43 2.87923
r149 23 39 0.0223169
r150 22 38 0.0418175
r151 21 39 0.19
r152 21 22 1.81231
r153 15 38 0.160909
r154 15 16 0.391692
r155 13 23 0.391692
r156 8 10 4.7687
r157 8 36 89.3538
r158 5 10 120.12
r159 1 8 4.7687
r160 1 2 160.68
.ends

.subckt PM_LOOKAHEAD%XI86/NET7 1 2 5 8 10 13 16 21 28 32 34 36 38 40 43 44
c119 44 0 4.92706e-19
c120 43 0 0.00701372f
c121 40 0 0.00165136f
c122 38 0 0.00386496f
c123 36 0 0.0111948f
c124 34 0 0.00450131f
c125 32 0 0.0058206f
c126 28 0 0.0230164f
c127 21 0 0.00560564f
c128 16 0 0.00519105f
c129 13 0 0.00351667f
c130 10 0 0.102163f
c131 8 0 0.00630645f
c132 1 0 0.139147f
r133 39 40 0.38
r134 35 44 0.0418175
r135 35 36 1.81231
r136 34 43 0.789231
r137 33 44 0.160909
r138 33 34 1.18385
r139 32 44 0.160909
r140 31 40 0.0223169
r141 31 32 1.60769
r142 28 43 2.87923
r143 23 39 0.0223169
r144 22 38 0.0418175
r145 21 39 0.19
r146 21 22 1.81231
r147 15 38 0.160909
r148 15 16 0.391692
r149 13 23 0.391692
r150 8 10 4.7687
r151 8 36 89.3538
r152 5 10 120.12
r153 1 8 4.7687
r154 1 2 160.68
.ends

.subckt PM_LOOKAHEAD%XI48/NET7 1 2 5 8 10 13 16 21 28 32 34 36 38 40 43 44
c113 44 0 4.92706e-19
c114 43 0 0.00536695f
c115 40 0 0.00265561f
c116 38 0 0.00519844f
c117 36 0 0.0113617f
c118 34 0 0.00410369f
c119 32 0 0.0060421f
c120 28 0 0.0180468f
c121 21 0 0.00621794f
c122 16 0 0.00920132f
c123 13 0 0.00492564f
c124 10 0 0.104804f
c125 8 0 0.00609006f
c126 1 0 0.138366f
r127 39 40 0.38
r128 35 44 0.0418175
r129 35 36 1.81231
r130 34 43 0.789231
r131 33 44 0.160909
r132 33 34 1.18385
r133 32 44 0.160909
r134 31 40 0.0223169
r135 31 32 1.60769
r136 28 43 2.87923
r137 23 39 0.0223169
r138 22 38 0.0418175
r139 21 39 0.19
r140 21 22 1.81231
r141 15 38 0.160909
r142 15 16 0.391692
r143 13 23 0.391692
r144 8 10 4.7687
r145 8 36 89.3538
r146 5 10 120.12
r147 1 8 4.7687
r148 1 2 160.68
.ends

.subckt PM_LOOKAHEAD%XI47/NET7 1 2 5 8 10 13 16 21 28 32 34 36 38 40 43 44
c108 44 0 4.92706e-19
c109 43 0 0.0064071f
c110 40 0 0.00228617f
c111 38 0 0.00525922f
c112 36 0 0.0111948f
c113 34 0 0.00495356f
c114 32 0 0.00589371f
c115 28 0 0.0182158f
c116 21 0 0.0062194f
c117 16 0 0.00920132f
c118 13 0 0.00450806f
c119 10 0 0.104616f
c120 8 0 0.00609006f
c121 1 0 0.139255f
r122 39 40 0.38
r123 35 44 0.0418175
r124 35 36 1.81231
r125 34 43 0.789231
r126 33 44 0.160909
r127 33 34 1.18385
r128 32 44 0.160909
r129 31 40 0.0223169
r130 31 32 1.60769
r131 28 43 2.87923
r132 23 39 0.0223169
r133 22 38 0.0418175
r134 21 39 0.19
r135 21 22 1.81231
r136 15 38 0.160909
r137 15 16 0.391692
r138 13 23 0.391692
r139 8 10 4.7687
r140 8 36 89.3538
r141 5 10 120.12
r142 1 8 4.7687
r143 1 2 160.68
.ends

.subckt PM_LOOKAHEAD%XI87/NET7 1 2 5 8 10 13 16 21 28 32 34 36 38 40 43 44
c124 44 0 4.92706e-19
c125 43 0 0.00767621f
c126 40 0 0.00165136f
c127 38 0 0.00380216f
c128 36 0 0.0111948f
c129 34 0 0.00460361f
c130 32 0 0.00603389f
c131 28 0 0.0344276f
c132 21 0 0.00524109f
c133 16 0 0.00500992f
c134 13 0 0.00343487f
c135 10 0 0.102168f
c136 8 0 0.00630645f
c137 1 0 0.139147f
r138 39 40 0.38
r139 35 44 0.0418175
r140 35 36 1.81231
r141 34 43 0.789231
r142 33 44 0.160909
r143 33 34 1.18385
r144 32 44 0.160909
r145 31 40 0.0223169
r146 31 32 1.60769
r147 28 43 2.87923
r148 23 39 0.0223169
r149 22 38 0.0418175
r150 21 39 0.19
r151 21 22 1.81231
r152 15 38 0.160909
r153 15 16 0.391692
r154 13 23 0.391692
r155 8 10 4.7687
r156 8 36 89.3538
r157 5 10 120.12
r158 1 8 4.7687
r159 1 2 160.68
.ends

.subckt PM_LOOKAHEAD%XI88/NET7 1 2 5 8 10 13 16 21 28 32 34 36 38 40 43 44
c123 44 0 4.92706e-19
c124 43 0 0.00767854f
c125 40 0 0.00165136f
c126 38 0 0.00411405f
c127 36 0 0.0111948f
c128 34 0 0.00460361f
c129 32 0 0.00603389f
c130 28 0 0.0344276f
c131 21 0 0.00524109f
c132 16 0 0.00569869f
c133 13 0 0.00343487f
c134 10 0 0.102142f
c135 8 0 0.00630645f
c136 1 0 0.139147f
r137 39 40 0.38
r138 35 44 0.0418175
r139 35 36 1.81231
r140 34 43 0.789231
r141 33 44 0.160909
r142 33 34 1.18385
r143 32 44 0.160909
r144 31 40 0.0223169
r145 31 32 1.60769
r146 28 43 2.87923
r147 23 39 0.0223169
r148 22 38 0.0418175
r149 21 39 0.19
r150 21 22 1.81231
r151 15 38 0.160909
r152 15 16 0.391692
r153 13 23 0.391692
r154 8 10 4.7687
r155 8 36 89.3538
r156 5 10 120.12
r157 1 8 4.7687
r158 1 2 160.68
.ends

.subckt PM_LOOKAHEAD%XI51/NET7 1 2 5 8 10 13 16 21 28 32 34 36 38 40 43 44
c100 44 0 4.92706e-19
c101 43 0 0.00795592f
c102 40 0 0.00265561f
c103 38 0 0.00445131f
c104 36 0 0.0111948f
c105 34 0 0.0058169f
c106 32 0 0.00659046f
c107 28 0 0.0197652f
c108 21 0 0.00627569f
c109 16 0 0.00632147f
c110 13 0 0.00370692f
c111 10 0 0.10532f
c112 8 0 0.00609006f
c113 1 0 0.140694f
r114 39 40 0.38
r115 35 44 0.0418175
r116 35 36 1.81231
r117 34 43 0.789231
r118 33 44 0.160909
r119 33 34 1.18385
r120 32 44 0.160909
r121 31 40 0.0223169
r122 31 32 1.60769
r123 28 43 2.87923
r124 23 39 0.0223169
r125 22 38 0.0418175
r126 21 39 0.19
r127 21 22 1.81231
r128 15 38 0.160909
r129 15 16 0.391692
r130 13 23 0.391692
r131 8 10 4.7687
r132 8 36 89.3538
r133 5 10 120.12
r134 1 8 4.7687
r135 1 2 160.68
.ends

.subckt PM_LOOKAHEAD%XI58/NET7 1 2 5 8 10 13 16 21 28 32 34 36 38 40 43 44
c92 44 0 4.92706e-19
c93 43 0 0.00631006f
c94 40 0 0.00265561f
c95 38 0 0.00523247f
c96 36 0 0.0111948f
c97 34 0 0.00372687f
c98 32 0 0.00845889f
c99 28 0 0.0184372f
c100 21 0 0.00646967f
c101 16 0 0.00817777f
c102 13 0 0.00492564f
c103 10 0 0.105315f
c104 8 0 0.00609006f
c105 1 0 0.140693f
r106 39 40 0.38
r107 35 44 0.0418175
r108 35 36 1.81231
r109 34 43 0.789231
r110 33 44 0.160909
r111 33 34 1.18385
r112 32 44 0.160909
r113 31 40 0.0223169
r114 31 32 1.60769
r115 28 43 2.87923
r116 23 39 0.0223169
r117 22 38 0.0418175
r118 21 39 0.19
r119 21 22 1.81231
r120 15 38 0.160909
r121 15 16 0.391692
r122 13 23 0.391692
r123 8 10 4.7687
r124 8 36 89.3538
r125 5 10 120.12
r126 1 8 4.7687
r127 1 2 160.68
.ends

.subckt PM_LOOKAHEAD%XI89/NET7 1 2 5 8 10 13 16 21 28 32 34 36 38 40 43 44
c128 44 0 4.92706e-19
c129 43 0 0.00765948f
c130 40 0 0.00165136f
c131 38 0 0.00411405f
c132 36 0 0.0111948f
c133 34 0 0.00460361f
c134 32 0 0.00603389f
c135 28 0 0.0344276f
c136 21 0 0.00524109f
c137 16 0 0.00569869f
c138 13 0 0.00343487f
c139 10 0 0.100941f
c140 8 0 0.00630645f
c141 1 0 0.139147f
r142 39 40 0.38
r143 35 44 0.0418175
r144 35 36 1.81231
r145 34 43 0.789231
r146 33 44 0.160909
r147 33 34 1.18385
r148 32 44 0.160909
r149 31 40 0.0223169
r150 31 32 1.60769
r151 28 43 2.87923
r152 23 39 0.0223169
r153 22 38 0.0418175
r154 21 39 0.19
r155 21 22 1.81231
r156 15 38 0.160909
r157 15 16 0.391692
r158 13 23 0.391692
r159 8 10 4.7687
r160 8 36 89.3538
r161 5 10 120.12
r162 1 8 4.7687
r163 1 2 160.68
.ends

.subckt PM_LOOKAHEAD%XI90/NET7 1 2 5 8 10 13 16 21 28 32 34 36 38 40 43 44
c118 44 0 4.92706e-19
c119 43 0 0.00761071f
c120 40 0 0.00273647f
c121 38 0 0.00411405f
c122 36 0 0.0111948f
c123 34 0 0.00461434f
c124 32 0 0.0064232f
c125 28 0 0.0344276f
c126 21 0 0.00561213f
c127 16 0 0.00569869f
c128 13 0 0.00370692f
c129 10 0 0.104207f
c130 8 0 0.00631105f
c131 1 0 0.139147f
r132 39 40 0.38
r133 35 44 0.0418175
r134 35 36 1.81231
r135 34 43 0.789231
r136 33 44 0.160909
r137 33 34 1.18385
r138 32 44 0.160909
r139 31 40 0.0223169
r140 31 32 1.60769
r141 28 43 2.87923
r142 23 39 0.0223169
r143 22 38 0.0418175
r144 21 39 0.19
r145 21 22 1.81231
r146 15 38 0.160909
r147 15 16 0.391692
r148 13 23 0.391692
r149 8 10 4.7687
r150 8 36 89.3538
r151 5 10 120.12
r152 1 8 4.7687
r153 1 2 160.68
.ends

.subckt PM_LOOKAHEAD%XI10/XI0/NET9 6 13 20 21 23 25 26
c46 26 0 4.88485e-19
c47 25 0 0.0132191f
c48 23 0 0.00750301f
c49 21 0 0.0140674f
c50 20 0 0.00140535f
c51 13 0 0.0283807f
c52 6 0 0.00831754f
r53 25 26 0.553316
r54 23 30 4.7687
r55 21 23 89.3538
r56 20 21 3.52231
r57 17 25 0.340516
r58 15 20 0.212317
r59 15 26 0.38
r60 13 30 35.88
r61 6 17 2.49923
.ends

.subckt PM_LOOKAHEAD%XI10/XI1/NET9 6 13 20 21 23 25 26
c41 26 0 6.48326e-19
c42 25 0 0.0133005f
c43 23 0 0.00750068f
c44 21 0 0.0139922f
c45 20 0 0.00151433f
c46 13 0 0.0284387f
c47 6 0 0.00910733f
r48 25 26 0.553316
r49 23 30 4.7687
r50 21 23 89.3538
r51 20 21 3.52231
r52 17 25 0.340516
r53 15 20 0.212317
r54 15 26 0.38
r55 13 30 35.88
r56 6 17 2.49923
.ends

.subckt PM_LOOKAHEAD%XI11/XI0/NET9 6 13 20 21 23 25 26
c46 26 0 4.88485e-19
c47 25 0 0.0133861f
c48 23 0 0.00750301f
c49 21 0 0.0141486f
c50 20 0 0.00140535f
c51 13 0 0.0283807f
c52 6 0 0.00973781f
r53 25 26 0.553316
r54 23 30 4.7687
r55 21 23 89.3538
r56 20 21 3.52231
r57 17 25 0.340516
r58 15 20 0.212317
r59 15 26 0.38
r60 13 30 35.88
r61 6 17 2.49923
.ends

.subckt PM_LOOKAHEAD%XI11/XI1/NET9 6 13 20 21 23 25 26
c40 26 0 6.48326e-19
c41 25 0 0.0133005f
c42 23 0 0.00750068f
c43 21 0 0.0139922f
c44 20 0 0.00151433f
c45 13 0 0.0284387f
c46 6 0 0.0102154f
r47 25 26 0.553316
r48 23 30 4.7687
r49 21 23 89.3538
r50 20 21 3.52231
r51 17 25 0.340516
r52 15 20 0.212317
r53 15 26 0.38
r54 13 30 35.88
r55 6 17 2.49923
.ends

.subckt PM_LOOKAHEAD%XI12/XI0/NET9 6 13 20 21 23 25 26
c49 26 0 4.88485e-19
c50 25 0 0.0132063f
c51 23 0 0.00750301f
c52 21 0 0.0140097f
c53 20 0 0.00140535f
c54 13 0 0.0283807f
c55 6 0 0.00927226f
r56 25 26 0.553316
r57 23 30 4.7687
r58 21 23 89.3538
r59 20 21 3.52231
r60 17 25 0.340516
r61 15 20 0.212317
r62 15 26 0.38
r63 13 30 35.88
r64 6 17 2.49923
.ends

.subckt PM_LOOKAHEAD%XI12/XI1/NET9 6 13 20 21 23 25 26
c42 26 0 5.13517e-19
c43 25 0 0.0112953f
c44 23 0 0.00750068f
c45 21 0 0.013835f
c46 20 0 0.00151433f