* File: KoggeStone.pex.netlist
* Created: Thu Jun  6 14:04:56 2013
* Program "Calibre xRC"
* Version "v2011.4_35.27"
* 
.include "KoggeStone.pex.netlist.pex"
.subckt KoggeStone  GND! VDD! CIN S7 S3 S6 S2 S5 S1 S4 S0 B7 A7 B6 A6 B5 A5 B4
+ A4 B3 A3 B2 A2 B1 A1 B0 A0 COUT
* 
* COUT	COUT
* A0	A0
* B0	B0
* A1	A1
* B1	B1
* A2	A2
* B2	B2
* A3	A3
* B3	B3
* A4	A4
* B4	B4
* A5	A5
* B5	B5
* A6	A6
* B6	B6
* A7	A7
* B7	B7
* S0	S0
* S4	S4
* S1	S1
* S5	S5
* S2	S2
* S6	S6
* S3	S3
* S7	S7
* CIN	CIN
* VDD!	VDD!
* GND!	GND!
mXI121/XI4/MM3 XI121/XI4/NET17 N_NET091_XI121/XI4/MM3_g N_GND!_XI121/XI4/MM3_s
+ N_GND!_XI121/XI5/MM1_b NMOS_VTG L=5e-08 W=1.63e-06 AD=2.282e-13 AS=1.77425e-13
+ PD=3.54e-06 PS=3.485e-06
mXI121/XI4/MM1 N_XI121/NET8_XI121/XI4/MM1_d N_NET079_XI121/XI4/MM1_g
+ XI121/XI4/NET17 N_GND!_XI121/XI5/MM1_b NMOS_VTG L=5e-08 W=1.63e-06
+ AD=1.834e-13 AS=2.282e-13 PD=3.49e-06 PS=3.54e-06
mXI121/XI4/MM2 N_XI121/NET8_XI121/XI4/MM2_d N_NET091_XI121/XI4/MM2_g
+ N_VDD!_XI121/XI4/MM2_s N_VDD!_XI121/XI5/MM0_b PMOS_VTG L=5e-08 W=1.44e-06
+ AD=2.016e-13 AS=1.58175e-13 PD=3.16e-06 PS=3.105e-06
mXI121/XI4/MM0 N_XI121/NET8_XI121/XI4/MM2_d N_NET079_XI121/XI4/MM0_g
+ N_VDD!_XI121/XI4/MM0_s N_VDD!_XI121/XI5/MM0_b PMOS_VTG L=5e-08 W=1.44e-06
+ AD=2.016e-13 AS=1.512e-13 PD=3.16e-06 PS=3.11e-06
mXI121/XI5/MM1 N_NET061_XI121/XI5/MM1_d N_XI121/NET8_XI121/XI5/MM1_g
+ N_GND!_XI121/XI5/MM1_s N_GND!_XI121/XI5/MM1_b NMOS_VTG L=5e-08 W=1.44e-06
+ AD=1.161e-13 AS=1.0845e-13 PD=3.36e-06 PS=3.19e-06
mXI121/XI5/MM0 N_NET061_XI121/XI5/MM0_d N_XI121/NET8_XI121/XI5/MM0_g
+ N_VDD!_XI121/XI5/MM0_s N_VDD!_XI121/XI5/MM0_b PMOS_VTG L=5e-08 W=1.96e-06
+ AD=1.6015e-13 AS=1.57e-13 PD=4.57e-06 PS=4.5e-06
mXI122/XI4/MM3 XI122/XI4/NET17 N_CIN_XI122/XI4/MM3_g N_GND!_XI122/XI4/MM3_s
+ N_GND!_XI121/XI5/MM1_b NMOS_VTG L=5e-08 W=1.63e-06 AD=2.282e-13 AS=1.77425e-13
+ PD=3.54e-06 PS=3.485e-06
mXI122/XI4/MM1 N_XI122/NET8_XI122/XI4/MM1_d N_NET061_XI122/XI4/MM1_g
+ XI122/XI4/NET17 N_GND!_XI121/XI5/MM1_b NMOS_VTG L=5e-08 W=1.63e-06
+ AD=1.834e-13 AS=2.282e-13 PD=3.49e-06 PS=3.54e-06
mXI122/XI4/MM2 N_XI122/NET8_XI122/XI4/MM2_d N_CIN_XI122/XI4/MM2_g
+ N_VDD!_XI122/XI4/MM2_s N_VDD!_XI122/XI5/MM0_b PMOS_VTG L=5e-08 W=1.44e-06
+ AD=2.016e-13 AS=1.58175e-13 PD=3.16e-06 PS=3.105e-06
mXI122/XI4/MM0 N_XI122/NET8_XI122/XI4/MM2_d N_NET061_XI122/XI4/MM0_g
+ N_VDD!_XI122/XI4/MM0_s N_VDD!_XI122/XI5/MM0_b PMOS_VTG L=5e-08 W=1.44e-06
+ AD=2.016e-13 AS=1.512e-13 PD=3.16e-06 PS=3.11e-06
mXI122/XI5/MM1 N_NET0176_XI122/XI5/MM1_d N_XI122/NET8_XI122/XI5/MM1_g
+ N_GND!_XI122/XI5/MM1_s N_GND!_XI121/XI5/MM1_b NMOS_VTG L=5e-08 W=1.44e-06
+ AD=1.161e-13 AS=1.0845e-13 PD=3.36e-06 PS=3.19e-06
mXI122/XI5/MM0 N_NET0176_XI122/XI5/MM0_d N_XI122/NET8_XI122/XI5/MM0_g
+ N_VDD!_XI122/XI5/MM0_s N_VDD!_XI122/XI5/MM0_b PMOS_VTG L=5e-08 W=1.96e-06
+ AD=1.6015e-13 AS=1.57e-13 PD=4.57e-06 PS=4.5e-06
mXI13/MM3 N_XI13/NET9_XI13/MM3_d N_NET11_XI13/MM3_g N_GND!_XI13/MM3_s
+ N_GND!_XI13/MM3_b NMOS_VTG L=5e-08 W=2.8e-07 AD=2.94e-14 AS=2.94e-14
+ PD=7.7e-07 PS=7.7e-07
mXI13/MM4 N_S7_XI13/MM4_d N_NET0137_XI13/MM4_g N_XI13/NET9_XI13/MM3_d
+ N_GND!_XI13/MM3_b NMOS_VTG L=5e-08 W=2.8e-07 AD=2.94e-14 AS=2.94e-14
+ PD=7.7e-07 PS=7.7e-07
mXI13/MM5 N_S7_XI13/MM4_d N_XI13/NET9_XI13/MM5_g N_NET0137_XI13/MM5_s
+ N_GND!_XI13/MM3_b NMOS_VTG L=5e-08 W=2.8e-07 AD=2.94e-14 AS=2.94e-14
+ PD=7.7e-07 PS=7.7e-07
mXI13/MM0 N_XI13/NET9_XI13/MM0_d N_NET11_XI13/MM0_g N_VDD!_XI13/MM0_s
+ N_VDD!_XI13/MM0_b PMOS_VTG L=5e-08 W=3e-07 AD=3.15e-14 AS=3.15e-14 PD=8.1e-07
+ PS=8.1e-07
mXI13/MM1 N_S7_XI13/MM1_d N_NET0137_XI13/MM1_g N_NET11_XI13/MM1_s
+ N_VDD!_XI13/MM0_b PMOS_VTG L=5e-08 W=3e-07 AD=3.15e-14 AS=3.15e-14 PD=8.1e-07
+ PS=8.1e-07
mXI13/MM2 N_S7_XI13/MM1_d N_NET11_XI13/MM2_g N_NET0137_XI13/MM2_s
+ N_VDD!_XI13/MM0_b PMOS_VTG L=5e-08 W=3e-07 AD=3.15e-14 AS=3.15e-14 PD=8.1e-07
+ PS=8.1e-07
mXI9/MM3 N_XI9/NET9_XI9/MM3_d N_NET0208_XI9/MM3_g N_GND!_XI9/MM3_s
+ N_GND!_XI9/MM3_b NMOS_VTG L=5e-08 W=2.8e-07 AD=2.94e-14 AS=2.94e-14 PD=7.7e-07
+ PS=7.7e-07
mXI9/MM4 N_S3_XI9/MM4_d N_NET0149_XI9/MM4_g N_XI9/NET9_XI9/MM3_d
+ N_GND!_XI9/MM3_b NMOS_VTG L=5e-08 W=2.8e-07 AD=2.94e-14 AS=2.94e-14 PD=7.7e-07
+ PS=7.7e-07
mXI9/MM5 N_S3_XI9/MM4_d N_XI9/NET9_XI9/MM5_g N_NET0149_XI9/MM5_s
+ N_GND!_XI9/MM3_b NMOS_VTG L=5e-08 W=2.8e-07 AD=2.94e-14 AS=2.94e-14 PD=7.7e-07
+ PS=7.7e-07
mXI9/MM0 N_XI9/NET9_XI9/MM0_d N_NET0208_XI9/MM0_g N_VDD!_XI9/MM0_s
+ N_VDD!_XI9/MM0_b PMOS_VTG L=5e-08 W=3e-07 AD=3.15e-14 AS=3.15e-14 PD=8.1e-07
+ PS=8.1e-07
mXI9/MM1 N_S3_XI9/MM1_d N_NET0149_XI9/MM1_g N_NET0208_XI9/MM1_s N_VDD!_XI9/MM0_b
+ PMOS_VTG L=5e-08 W=3e-07 AD=3.15e-14 AS=3.15e-14 PD=8.1e-07 PS=8.1e-07
mXI9/MM2 N_S3_XI9/MM1_d N_NET0208_XI9/MM2_g N_NET0149_XI9/MM2_s N_VDD!_XI9/MM0_b
+ PMOS_VTG L=5e-08 W=3e-07 AD=3.15e-14 AS=3.15e-14 PD=8.1e-07 PS=8.1e-07
mXI12/MM3 N_XI12/NET9_XI12/MM3_d N_NET14_XI12/MM3_g N_GND!_XI12/MM3_s
+ N_GND!_XI13/MM3_b NMOS_VTG L=5e-08 W=2.8e-07 AD=2.94e-14 AS=2.94e-14
+ PD=7.7e-07 PS=7.7e-07
mXI12/MM4 N_S6_XI12/MM4_d N_NET0116_XI12/MM4_g N_XI12/NET9_XI12/MM3_d
+ N_GND!_XI13/MM3_b NMOS_VTG L=5e-08 W=2.8e-07 AD=2.94e-14 AS=2.94e-14
+ PD=7.7e-07 PS=7.7e-07
mXI12/MM5 N_S6_XI12/MM4_d N_XI12/NET9_XI12/MM5_g N_NET0116_XI12/MM5_s
+ N_GND!_XI13/MM3_b NMOS_VTG L=5e-08 W=2.8e-07 AD=2.94e-14 AS=2.94e-14
+ PD=7.7e-07 PS=7.7e-07
mXI12/MM0 N_XI12/NET9_XI12/MM0_d N_NET14_XI12/MM0_g N_VDD!_XI12/MM0_s
+ N_VDD!_XI13/MM0_b PMOS_VTG L=5e-08 W=3e-07 AD=3.15e-14 AS=3.15e-14 PD=8.1e-07
+ PS=8.1e-07
mXI12/MM1 N_S6_XI12/MM1_d N_NET0116_XI12/MM1_g N_NET14_XI12/MM1_s
+ N_VDD!_XI13/MM0_b PMOS_VTG L=5e-08 W=3e-07 AD=3.15e-14 AS=3.15e-14 PD=8.1e-07
+ PS=8.1e-07
mXI12/MM2 N_S6_XI12/MM1_d N_NET14_XI12/MM2_g N_NET0116_XI12/MM2_s
+ N_VDD!_XI13/MM0_b PMOS_VTG L=5e-08 W=3e-07 AD=3.15e-14 AS=3.15e-14 PD=8.1e-07
+ PS=8.1e-07
mXI16/MM3 N_XI16/NET9_XI16/MM3_d N_NET0211_XI16/MM3_g N_GND!_XI16/MM3_s
+ N_GND!_XI9/MM3_b NMOS_VTG L=5e-08 W=2.8e-07 AD=2.94e-14 AS=2.94e-14 PD=7.7e-07
+ PS=7.7e-07
mXI16/MM4 N_S2_XI16/MM4_d N_NET0132_XI16/MM4_g N_XI16/NET9_XI16/MM3_d
+ N_GND!_XI9/MM3_b NMOS_VTG L=5e-08 W=2.8e-07 AD=2.94e-14 AS=2.94e-14 PD=7.7e-07
+ PS=7.7e-07
mXI16/MM5 N_S2_XI16/MM4_d N_XI16/NET9_XI16/MM5_g N_NET0132_XI16/MM5_s
+ N_GND!_XI9/MM3_b NMOS_VTG L=5e-08 W=2.8e-07 AD=2.94e-14 AS=2.94e-14 PD=7.7e-07
+ PS=7.7e-07
mXI16/MM0 N_XI16/NET9_XI16/MM0_d N_NET0211_XI16/MM0_g N_VDD!_XI16/MM0_s
+ N_VDD!_XI9/MM0_b PMOS_VTG L=5e-08 W=3e-07 AD=3.15e-14 AS=3.15e-14 PD=8.1e-07
+ PS=8.1e-07
mXI16/MM1 N_S2_XI16/MM1_d N_NET0132_XI16/MM1_g N_NET0211_XI16/MM1_s
+ N_VDD!_XI9/MM0_b PMOS_VTG L=5e-08 W=3e-07 AD=3.15e-14 AS=3.15e-14 PD=8.1e-07
+ PS=8.1e-07
mXI16/MM2 N_S2_XI16/MM1_d N_NET0211_XI16/MM2_g N_NET0132_XI16/MM2_s
+ N_VDD!_XI9/MM0_b PMOS_VTG L=5e-08 W=3e-07 AD=3.15e-14 AS=3.15e-14 PD=8.1e-07
+ PS=8.1e-07
mXI11/MM3 N_XI11/NET9_XI11/MM3_d N_NET17_XI11/MM3_g N_GND!_XI11/MM3_s
+ N_GND!_XI13/MM3_b NMOS_VTG L=5e-08 W=2.8e-07 AD=2.94e-14 AS=2.94e-14
+ PD=7.7e-07 PS=7.7e-07
mXI11/MM4 N_S5_XI11/MM4_d N_NET0123_XI11/MM4_g N_XI11/NET9_XI11/MM3_d
+ N_GND!_XI13/MM3_b NMOS_VTG L=5e-08 W=2.8e-07 AD=2.94e-14 AS=2.94e-14
+ PD=7.7e-07 PS=7.7e-07
mXI11/MM5 N_S5_XI11/MM4_d N_XI11/NET9_XI11/MM5_g N_NET0123_XI11/MM5_s
+ N_GND!_XI13/MM3_b NMOS_VTG L=5e-08 W=2.8e-07 AD=2.94e-14 AS=2.94e-14
+ PD=7.7e-07 PS=7.7e-07
mXI11/MM0 N_XI11/NET9_XI11/MM0_d N_NET17_XI11/MM0_g N_VDD!_XI11/MM0_s
+ N_VDD!_XI13/MM0_b PMOS_VTG L=5e-08 W=3e-07 AD=3.15e-14 AS=3.15e-14 PD=8.1e-07
+ PS=8.1e-07
mXI11/MM1 N_S5_XI11/MM1_d N_NET0123_XI11/MM1_g N_NET17_XI11/MM1_s
+ N_VDD!_XI13/MM0_b PMOS_VTG L=5e-08 W=3e-07 AD=3.15e-14 AS=3.15e-14 PD=8.1e-07
+ PS=8.1e-07
mXI11/MM2 N_S5_XI11/MM1_d N_NET17_XI11/MM2_g N_NET0123_XI11/MM2_s
+ N_VDD!_XI13/MM0_b PMOS_VTG L=5e-08 W=3e-07 AD=3.15e-14 AS=3.15e-14 PD=8.1e-07
+ PS=8.1e-07
mXI15/MM3 N_XI15/NET9_XI15/MM3_d N_NET5_XI15/MM3_g N_GND!_XI15/MM3_s
+ N_GND!_XI9/MM3_b NMOS_VTG L=5e-08 W=2.8e-07 AD=2.94e-14 AS=2.94e-14 PD=7.7e-07
+ PS=7.7e-07
mXI15/MM4 N_S1_XI15/MM4_d N_NET25_XI15/MM4_g N_XI15/NET9_XI15/MM3_d
+ N_GND!_XI9/MM3_b NMOS_VTG L=5e-08 W=2.8e-07 AD=2.94e-14 AS=2.94e-14 PD=7.7e-07
+ PS=7.7e-07
mXI15/MM5 N_S1_XI15/MM4_d N_XI15/NET9_XI15/MM5_g N_NET25_XI15/MM5_s
+ N_GND!_XI9/MM3_b NMOS_VTG L=5e-08 W=2.8e-07 AD=2.94e-14 AS=2.94e-14 PD=7.7e-07
+ PS=7.7e-07
mXI15/MM0 N_XI15/NET9_XI15/MM0_d N_NET5_XI15/MM0_g N_VDD!_XI15/MM0_s
+ N_VDD!_XI9/MM0_b PMOS_VTG L=5e-08 W=3e-07 AD=3.15e-14 AS=3.15e-14 PD=8.1e-07
+ PS=8.1e-07
mXI15/MM1 N_S1_XI15/MM1_d N_NET25_XI15/MM1_g N_NET5_XI15/MM1_s N_VDD!_XI9/MM0_b
+ PMOS_VTG L=5e-08 W=3e-07 AD=3.15e-14 AS=3.15e-14 PD=8.1e-07 PS=8.1e-07
mXI15/MM2 N_S1_XI15/MM1_d N_NET5_XI15/MM2_g N_NET25_XI15/MM2_s N_VDD!_XI9/MM0_b
+ PMOS_VTG L=5e-08 W=3e-07 AD=3.15e-14 AS=3.15e-14 PD=8.1e-07 PS=8.1e-07
mXI10/MM3 N_XI10/NET9_XI10/MM3_d N_NET20_XI10/MM3_g N_GND!_XI10/MM3_s
+ N_GND!_XI13/MM3_b NMOS_VTG L=5e-08 W=2.8e-07 AD=2.94e-14 AS=2.94e-14
+ PD=7.7e-07 PS=7.7e-07
mXI10/MM4 N_S4_XI10/MM4_d N_NET0122_XI10/MM4_g N_XI10/NET9_XI10/MM3_d
+ N_GND!_XI13/MM3_b NMOS_VTG L=5e-08 W=2.8e-07 AD=2.94e-14 AS=2.94e-14
+ PD=7.7e-07 PS=7.7e-07
mXI10/MM5 N_S4_XI10/MM4_d N_XI10/NET9_XI10/MM5_g N_NET0122_XI10/MM5_s
+ N_GND!_XI13/MM3_b NMOS_VTG L=5e-08 W=2.8e-07 AD=2.94e-14 AS=2.94e-14
+ PD=7.7e-07 PS=7.7e-07
mXI10/MM0 N_XI10/NET9_XI10/MM0_d N_NET20_XI10/MM0_g N_VDD!_XI10/MM0_s
+ N_VDD!_XI13/MM0_b PMOS_VTG L=5e-08 W=3e-07 AD=3.15e-14 AS=3.15e-14 PD=8.1e-07
+ PS=8.1e-07
mXI10/MM1 N_S4_XI10/MM1_d N_NET0122_XI10/MM1_g N_NET20_XI10/MM1_s
+ N_VDD!_XI13/MM0_b PMOS_VTG L=5e-08 W=3e-07 AD=3.15e-14 AS=3.15e-14 PD=8.1e-07
+ PS=8.1e-07
mXI10/MM2 N_S4_XI10/MM1_d N_NET20_XI10/MM2_g N_NET0122_XI10/MM2_s
+ N_VDD!_XI13/MM0_b PMOS_VTG L=5e-08 W=3e-07 AD=3.15e-14 AS=3.15e-14 PD=8.1e-07
+ PS=8.1e-07
mXI14/MM3 N_XI14/NET9_XI14/MM3_d N_CIN_XI14/MM3_g N_GND!_XI14/MM3_s
+ N_GND!_XI9/MM3_b NMOS_VTG L=5e-08 W=2.8e-07 AD=2.94e-14 AS=2.94e-14 PD=7.7e-07
+ PS=7.7e-07
mXI14/MM4 N_S0_XI14/MM4_d N_NET0158_XI14/MM4_g N_XI14/NET9_XI14/MM3_d
+ N_GND!_XI9/MM3_b NMOS_VTG L=5e-08 W=2.8e-07 AD=2.94e-14 AS=2.94e-14 PD=7.7e-07
+ PS=7.7e-07
mXI14/MM5 N_S0_XI14/MM4_d N_XI14/NET9_XI14/MM5_g N_NET0158_XI14/MM5_s
+ N_GND!_XI9/MM3_b NMOS_VTG L=5e-08 W=2.8e-07 AD=2.94e-14 AS=2.94e-14 PD=7.7e-07
+ PS=7.7e-07
mXI14/MM0 N_XI14/NET9_XI14/MM0_d N_CIN_XI14/MM0_g N_VDD!_XI14/MM0_s
+ N_VDD!_XI9/MM0_b PMOS_VTG L=5e-08 W=3e-07 AD=3.15e-14 AS=3.15e-14 PD=8.1e-07
+ PS=8.1e-07
mXI14/MM1 N_S0_XI14/MM1_d N_NET0158_XI14/MM1_g N_CIN_XI14/MM1_s N_VDD!_XI9/MM0_b
+ PMOS_VTG L=5e-08 W=3e-07 AD=3.15e-14 AS=3.15e-14 PD=8.1e-07 PS=8.1e-07
mXI14/MM2 N_S0_XI14/MM1_d N_CIN_XI14/MM2_g N_NET0158_XI14/MM2_s N_VDD!_XI9/MM0_b
+ PMOS_VTG L=5e-08 W=3e-07 AD=3.15e-14 AS=3.15e-14 PD=8.1e-07 PS=8.1e-07
mXI115/XI4/MM3 XI115/XI4/NET17 N_B7_XI115/XI4/MM3_g N_GND!_XI115/XI4/MM3_s
+ N_GND!_XI115/XI5/MM1_b NMOS_VTG L=5e-08 W=1.63e-06 AD=2.282e-13 AS=1.77425e-13
+ PD=3.54e-06 PS=3.485e-06
mXI115/XI4/MM1 N_XI115/NET8_XI115/XI4/MM1_d N_A7_XI115/XI4/MM1_g XI115/XI4/NET17
+ N_GND!_XI115/XI5/MM1_b NMOS_VTG L=5e-08 W=1.63e-06 AD=1.834e-13 AS=2.282e-13
+ PD=3.49e-06 PS=3.54e-06
mXI115/XI4/MM2 N_XI115/NET8_XI115/XI4/MM2_d N_B7_XI115/XI4/MM2_g
+ N_VDD!_XI115/XI4/MM2_s N_VDD!_XI115/XI5/MM0_b PMOS_VTG L=5e-08 W=1.44e-06
+ AD=2.016e-13 AS=1.58175e-13 PD=3.16e-06 PS=3.105e-06
mXI115/XI4/MM0 N_XI115/NET8_XI115/XI4/MM2_d N_A7_XI115/XI4/MM0_g
+ N_VDD!_XI115/XI4/MM0_s N_VDD!_XI115/XI5/MM0_b PMOS_VTG L=5e-08 W=1.44e-06
+ AD=2.016e-13 AS=1.512e-13 PD=3.16e-06 PS=3.11e-06
mXI115/XI5/MM1 N_NET0160_XI115/XI5/MM1_d N_XI115/NET8_XI115/XI5/MM1_g
+ N_GND!_XI115/XI5/MM1_s N_GND!_XI115/XI5/MM1_b NMOS_VTG L=5e-08 W=1.44e-06
+ AD=1.161e-13 AS=1.0845e-13 PD=3.36e-06 PS=3.19e-06
mXI115/XI5/MM0 N_NET0160_XI115/XI5/MM0_d N_XI115/NET8_XI115/XI5/MM0_g
+ N_VDD!_XI115/XI5/MM0_s N_VDD!_XI115/XI5/MM0_b PMOS_VTG L=5e-08 W=1.96e-06
+ AD=1.6015e-13 AS=1.57e-13 PD=4.57e-06 PS=4.5e-06
mXI109/XI4/MM3 XI109/XI4/NET17 N_B6_XI109/XI4/MM3_g N_GND!_XI109/XI4/MM3_s
+ N_GND!_XI115/XI5/MM1_b NMOS_VTG L=5e-08 W=1.63e-06 AD=2.282e-13 AS=1.77425e-13
+ PD=3.54e-06 PS=3.485e-06
mXI109/XI4/MM1 N_XI109/NET8_XI109/XI4/MM1_d N_A6_XI109/XI4/MM1_g XI109/XI4/NET17
+ N_GND!_XI115/XI5/MM1_b NMOS_VTG L=5e-08 W=1.63e-06 AD=1.834e-13 AS=2.282e-13
+ PD=3.49e-06 PS=3.54e-06
mXI109/XI4/MM2 N_XI109/NET8_XI109/XI4/MM2_d N_B6_XI109/XI4/MM2_g
+ N_VDD!_XI109/XI4/MM2_s N_VDD!_XI115/XI5/MM0_b PMOS_VTG L=5e-08 W=1.44e-06
+ AD=2.016e-13 AS=1.58175e-13 PD=3.16e-06 PS=3.105e-06
mXI109/XI4/MM0 N_XI109/NET8_XI109/XI4/MM2_d N_A6_XI109/XI4/MM0_g
+ N_VDD!_XI109/XI4/MM0_s N_VDD!_XI115/XI5/MM0_b PMOS_VTG L=5e-08 W=1.44e-06
+ AD=2.016e-13 AS=1.512e-13 PD=3.16e-06 PS=3.11e-06
mXI109/XI5/MM1 N_NET0138_XI109/XI5/MM1_d N_XI109/NET8_XI109/XI5/MM1_g
+ N_GND!_XI109/XI5/MM1_s N_GND!_XI115/XI5/MM1_b NMOS_VTG L=5e-08 W=1.44e-06
+ AD=1.161e-13 AS=1.0845e-13 PD=3.36e-06 PS=3.19e-06
mXI109/XI5/MM0 N_NET0138_XI109/XI5/MM0_d N_XI109/NET8_XI109/XI5/MM0_g
+ N_VDD!_XI109/XI5/MM0_s N_VDD!_XI115/XI5/MM0_b PMOS_VTG L=5e-08 W=1.96e-06
+ AD=1.6015e-13 AS=1.57e-13 PD=4.57e-06 PS=4.5e-06
mXI103/XI4/MM3 XI103/XI4/NET17 N_B5_XI103/XI4/MM3_g N_GND!_XI103/XI4/MM3_s
+ N_GND!_XI115/XI5/MM1_b NMOS_VTG L=5e-08 W=1.63e-06 AD=2.282e-13 AS=1.77425e-13
+ PD=3.54e-06 PS=3.485e-06
mXI103/XI4/MM1 N_XI103/NET8_XI103/XI4/MM1_d N_A5_XI103/XI4/MM1_g XI103/XI4/NET17
+ N_GND!_XI115/XI5/MM1_b NMOS_VTG L=5e-08 W=1.63e-06 AD=1.834e-13 AS=2.282e-13
+ PD=3.49e-06 PS=3.54e-06
mXI103/XI4/MM2 N_XI103/NET8_XI103/XI4/MM2_d N_B5_XI103/XI4/MM2_g
+ N_VDD!_XI103/XI4/MM2_s N_VDD!_XI115/XI5/MM0_b PMOS_VTG L=5e-08 W=1.44e-06
+ AD=2.016e-13 AS=1.58175e-13 PD=3.16e-06 PS=3.105e-06
mXI103/XI4/MM0 N_XI103/NET8_XI103/XI4/MM2_d N_A5_XI103/XI4/MM0_g
+ N_VDD!_XI103/XI4/MM0_s N_VDD!_XI115/XI5/MM0_b PMOS_VTG L=5e-08 W=1.44e-06
+ AD=2.016e-13 AS=1.512e-13 PD=3.16e-06 PS=3.11e-06
mXI103/XI5/MM1 N_NET0141_XI103/XI5/MM1_d N_XI103/NET8_XI103/XI5/MM1_g
+ N_GND!_XI103/XI5/MM1_s N_GND!_XI115/XI5/MM1_b NMOS_VTG L=5e-08 W=1.44e-06
+ AD=1.161e-13 AS=1.0845e-13 PD=3.36e-06 PS=3.19e-06
mXI103/XI5/MM0 N_NET0141_XI103/XI5/MM0_d N_XI103/NET8_XI103/XI5/MM0_g
+ N_VDD!_XI103/XI5/MM0_s N_VDD!_XI115/XI5/MM0_b PMOS_VTG L=5e-08 W=1.96e-06
+ AD=1.6015e-13 AS=1.57e-13 PD=4.57e-06 PS=4.5e-06
mXI97/XI4/MM3 XI97/XI4/NET17 N_B4_XI97/XI4/MM3_g N_GND!_XI97/XI4/MM3_s
+ N_GND!_XI115/XI5/MM1_b NMOS_VTG L=5e-08 W=1.63e-06 AD=2.282e-13 AS=1.77425e-13
+ PD=3.54e-06 PS=3.485e-06
mXI97/XI4/MM1 N_XI97/NET8_XI97/XI4/MM1_d N_A4_XI97/XI4/MM1_g XI97/XI4/NET17
+ N_GND!_XI115/XI5/MM1_b NMOS_VTG L=5e-08 W=1.63e-06 AD=1.834e-13 AS=2.282e-13
+ PD=3.49e-06 PS=3.54e-06
mXI97/XI4/MM2 N_XI97/NET8_XI97/XI4/MM2_d N_B4_XI97/XI4/MM2_g
+ N_VDD!_XI97/XI4/MM2_s N_VDD!_XI115/XI5/MM0_b PMOS_VTG L=5e-08 W=1.44e-06
+ AD=2.016e-13 AS=1.58175e-13 PD=3.16e-06 PS=3.105e-06
mXI97/XI4/MM0 N_XI97/NET8_XI97/XI4/MM2_d N_A4_XI97/XI4/MM0_g
+ N_VDD!_XI97/XI4/MM0_s N_VDD!_XI115/XI5/MM0_b PMOS_VTG L=5e-08 W=1.44e-06
+ AD=2.016e-13 AS=1.512e-13 PD=3.16e-06 PS=3.11e-06
mXI97/XI5/MM1 N_NET0225_XI97/XI5/MM1_d N_XI97/NET8_XI97/XI5/MM1_g
+ N_GND!_XI97/XI5/MM1_s N_GND!_XI115/XI5/MM1_b NMOS_VTG L=5e-08 W=1.44e-06
+ AD=1.161e-13 AS=1.0845e-13 PD=3.36e-06 PS=3.19e-06
mXI97/XI5/MM0 N_NET0225_XI97/XI5/MM0_d N_XI97/NET8_XI97/XI5/MM0_g
+ N_VDD!_XI97/XI5/MM0_s N_VDD!_XI115/XI5/MM0_b PMOS_VTG L=5e-08 W=1.96e-06
+ AD=1.6015e-13 AS=1.57e-13 PD=4.57e-06 PS=4.5e-06
mXI91/XI4/MM3 XI91/XI4/NET17 N_B3_XI91/XI4/MM3_g N_GND!_XI91/XI4/MM3_s
+ N_GND!_XI115/XI5/MM1_b NMOS_VTG L=5e-08 W=1.63e-06 AD=2.282e-13 AS=1.77425e-13
+ PD=3.54e-06 PS=3.485e-06
mXI91/XI4/MM1 N_XI91/NET8_XI91/XI4/MM1_d N_A3_XI91/XI4/MM1_g XI91/XI4/NET17
+ N_GND!_XI115/XI5/MM1_b NMOS_VTG L=5e-08 W=1.63e-06 AD=1.834e-13 AS=2.282e-13
+ PD=3.49e-06 PS=3.54e-06
mXI91/XI4/MM2 N_XI91/NET8_XI91/XI4/MM2_d N_B3_XI91/XI4/MM2_g
+ N_VDD!_XI91/XI4/MM2_s N_VDD!_XI115/XI5/MM0_b PMOS_VTG L=5e-08 W=1.44e-06
+ AD=2.016e-13 AS=1.58175e-13 PD=3.16e-06 PS=3.105e-06
mXI91/XI4/MM0 N_XI91/NET8_XI91/XI4/MM2_d N_A3_XI91/XI4/MM0_g
+ N_VDD!_XI91/XI4/MM0_s N_VDD!_XI115/XI5/MM0_b PMOS_VTG L=5e-08 W=1.44e-06
+ AD=2.016e-13 AS=1.512e-13 PD=3.16e-06 PS=3.11e-06
mXI91/XI5/MM1 N_NET0228_XI91/XI5/MM1_d N_XI91/NET8_XI91/XI5/MM1_g
+ N_GND!_XI91/XI5/MM1_s N_GND!_XI115/XI5/MM1_b NMOS_VTG L=5e-08 W=1.44e-06
+ AD=1.161e-13 AS=1.0845e-13 PD=3.36e-06 PS=3.19e-06
mXI91/XI5/MM0 N_NET0228_XI91/XI5/MM0_d N_XI91/NET8_XI91/XI5/MM0_g
+ N_VDD!_XI91/XI5/MM0_s N_VDD!_XI115/XI5/MM0_b PMOS_VTG L=5e-08 W=1.96e-06
+ AD=1.6015e-13 AS=1.57e-13 PD=4.57e-06 PS=4.5e-06
mXI87/XI4/MM3 XI87/XI4/NET17 N_B2_XI87/XI4/MM3_g N_GND!_XI87/XI4/MM3_s
+ N_GND!_XI115/XI5/MM1_b NMOS_VTG L=5e-08 W=1.63e-06 AD=2.282e-13 AS=1.77425e-13
+ PD=3.54e-06 PS=3.485e-06
mXI87/XI4/MM1 N_XI87/NET8_XI87/XI4/MM1_d N_A2_XI87/XI4/MM1_g XI87/XI4/NET17
+ N_GND!_XI115/XI5/MM1_b NMOS_VTG L=5e-08 W=1.63e-06 AD=1.834e-13 AS=2.282e-13
+ PD=3.49e-06 PS=3.54e-06
mXI87/XI4/MM2 N_XI87/NET8_XI87/XI4/MM2_d N_B2_XI87/XI4/MM2_g
+ N_VDD!_XI87/XI4/MM2_s N_VDD!_XI115/XI5/MM0_b PMOS_VTG L=5e-08 W=1.44e-06
+ AD=2.016e-13 AS=1.58175e-13 PD=3.16e-06 PS=3.105e-06
mXI87/XI4/MM0 N_XI87/NET8_XI87/XI4/MM2_d N_A2_XI87/XI4/MM0_g
+ N_VDD!_XI87/XI4/MM0_s N_VDD!_XI115/XI5/MM0_b PMOS_VTG L=5e-08 W=1.44e-06
+ AD=2.016e-13 AS=1.512e-13 PD=3.16e-06 PS=3.11e-06
mXI87/XI5/MM1 N_NET0150_XI87/XI5/MM1_d N_XI87/NET8_XI87/XI5/MM1_g
+ N_GND!_XI87/XI5/MM1_s N_GND!_XI115/XI5/MM1_b NMOS_VTG L=5e-08 W=1.44e-06
+ AD=1.161e-13 AS=1.0845e-13 PD=3.36e-06 PS=3.19e-06
mXI87/XI5/MM0 N_NET0150_XI87/XI5/MM0_d N_XI87/NET8_XI87/XI5/MM0_g
+ N_VDD!_XI87/XI5/MM0_s N_VDD!_XI115/XI5/MM0_b PMOS_VTG L=5e-08 W=1.96e-06
+ AD=1.6015e-13 AS=1.57e-13 PD=4.57e-06 PS=4.5e-06
mXI83/XI4/MM3 XI83/XI4/NET17 N_B1_XI83/XI4/MM3_g N_GND!_XI83/XI4/MM3_s
+ N_GND!_XI115/XI5/MM1_b NMOS_VTG L=5e-08 W=1.63e-06 AD=2.282e-13 AS=1.77425e-13
+ PD=3.54e-06 PS=3.485e-06
mXI83/XI4/MM1 N_XI83/NET8_XI83/XI4/MM1_d N_A1_XI83/XI4/MM1_g XI83/XI4/NET17
+ N_GND!_XI115/XI5/MM1_b NMOS_VTG L=5e-08 W=1.63e-06 AD=1.834e-13 AS=2.282e-13
+ PD=3.49e-06 PS=3.54e-06
mXI83/XI4/MM2 N_XI83/NET8_XI83/XI4/MM2_d N_B1_XI83/XI4/MM2_g
+ N_VDD!_XI83/XI4/MM2_s N_VDD!_XI115/XI5/MM0_b PMOS_VTG L=5e-08 W=1.44e-06
+ AD=2.016e-13 AS=1.58175e-13 PD=3.16e-06 PS=3.105e-06
mXI83/XI4/MM0 N_XI83/NET8_XI83/XI4/MM2_d N_A1_XI83/XI4/MM0_g
+ N_VDD!_XI83/XI4/MM0_s N_VDD!_XI115/XI5/MM0_b PMOS_VTG L=5e-08 W=1.44e-06
+ AD=2.016e-13 AS=1.512e-13 PD=3.16e-06 PS=3.11e-06
mXI83/XI5/MM1 N_NET0153_XI83/XI5/MM1_d N_XI83/NET8_XI83/XI5/MM1_g
+ N_GND!_XI83/XI5/MM1_s N_GND!_XI115/XI5/MM1_b NMOS_VTG L=5e-08 W=1.44e-06
+ AD=1.161e-13 AS=1.0845e-13 PD=3.36e-06 PS=3.19e-06
mXI83/XI5/MM0 N_NET0153_XI83/XI5/MM0_d N_XI83/NET8_XI83/XI5/MM0_g
+ N_VDD!_XI83/XI5/MM0_s N_VDD!_XI115/XI5/MM0_b PMOS_VTG L=5e-08 W=1.96e-06
+ AD=1.6015e-13 AS=1.57e-13 PD=4.57e-06 PS=4.5e-06
mXI81/XI4/MM3 XI81/XI4/NET17 N_B0_XI81/XI4/MM3_g N_GND!_XI81/XI4/MM3_s
+ N_GND!_XI115/XI5/MM1_b NMOS_VTG L=5e-08 W=1.63e-06 AD=2.282e-13 AS=1.77425e-13
+ PD=3.54e-06 PS=3.485e-06
mXI81/XI4/MM1 N_XI81/NET8_XI81/XI4/MM1_d N_A0_XI81/XI4/MM1_g XI81/XI4/NET17
+ N_GND!_XI115/XI5/MM1_b NMOS_VTG L=5e-08 W=1.63e-06 AD=1.834e-13 AS=2.282e-13
+ PD=3.49e-06 PS=3.54e-06
mXI81/XI4/MM2 N_XI81/NET8_XI81/XI4/MM2_d N_B0_XI81/XI4/MM2_g
+ N_VDD!_XI81/XI4/MM2_s N_VDD!_XI115/XI5/MM0_b PMOS_VTG L=5e-08 W=1.44e-06
+ AD=2.016e-13 AS=1.58175e-13 PD=3.16e-06 PS=3.105e-06
mXI81/XI4/MM0 N_XI81/NET8_XI81/XI4/MM2_d N_A0_XI81/XI4/MM0_g
+ N_VDD!_XI81/XI4/MM0_s N_VDD!_XI115/XI5/MM0_b PMOS_VTG L=5e-08 W=1.44e-06
+ AD=2.016e-13 AS=1.512e-13 PD=3.16e-06 PS=3.11e-06
mXI81/XI5/MM1 N_NET0167_XI81/XI5/MM1_d N_XI81/NET8_XI81/XI5/MM1_g
+ N_GND!_XI81/XI5/MM1_s N_GND!_XI115/XI5/MM1_b NMOS_VTG L=5e-08 W=1.44e-06
+ AD=1.161e-13 AS=1.0845e-13 PD=3.36e-06 PS=3.19e-06
mXI81/XI5/MM0 N_NET0167_XI81/XI5/MM0_d N_XI81/NET8_XI81/XI5/MM0_g
+ N_VDD!_XI81/XI5/MM0_s N_VDD!_XI115/XI5/MM0_b PMOS_VTG L=5e-08 W=1.96e-06
+ AD=1.6015e-13 AS=1.57e-13 PD=4.57e-06 PS=4.5e-06
mXI98/XI4/MM3 XI98/XI4/NET17 N_NET0228_XI98/XI4/MM3_g N_GND!_XI98/XI4/MM3_s
+ N_GND!_XI121/XI5/MM1_b NMOS_VTG L=5e-08 W=1.63e-06 AD=2.282e-13 AS=1.77425e-13
+ PD=3.54e-06 PS=3.485e-06
mXI98/XI4/MM1 N_XI98/NET8_XI98/XI4/MM1_d N_NET0122_XI98/XI4/MM1_g XI98/XI4/NET17
+ N_GND!_XI121/XI5/MM1_b NMOS_VTG L=5e-08 W=1.63e-06 AD=1.834e-13 AS=2.282e-13
+ PD=3.49e-06 PS=3.54e-06
mXI98/XI4/MM2 N_XI98/NET8_XI98/XI4/MM2_d N_NET0228_XI98/XI4/MM2_g
+ N_VDD!_XI98/XI4/MM2_s N_VDD!_XI121/XI5/MM0_b PMOS_VTG L=5e-08 W=1.44e-06
+ AD=2.016e-13 AS=1.58175e-13 PD=3.16e-06 PS=3.105e-06
mXI98/XI4/MM0 N_XI98/NET8_XI98/XI4/MM2_d N_NET0122_XI98/XI4/MM0_g
+ N_VDD!_XI98/XI4/MM0_s N_VDD!_XI121/XI5/MM0_b PMOS_VTG L=5e-08 W=1.44e-06
+ AD=2.016e-13 AS=1.512e-13 PD=3.16e-06 PS=3.11e-06
mXI98/XI5/MM1 N_NET0145_XI98/XI5/MM1_d N_XI98/NET8_XI98/XI5/MM1_g
+ N_GND!_XI98/XI5/MM1_s N_GND!_XI121/XI5/MM1_b NMOS_VTG L=5e-08 W=1.44e-06
+ AD=1.161e-13 AS=1.0845e-13 PD=3.36e-06 PS=3.19e-06
mXI98/XI5/MM0 N_NET0145_XI98/XI5/MM0_d N_XI98/NET8_XI98/XI5/MM0_g
+ N_VDD!_XI98/XI5/MM0_s N_VDD!_XI121/XI5/MM0_b PMOS_VTG L=5e-08 W=1.96e-06
+ AD=1.6015e-13 AS=1.57e-13 PD=4.57e-06 PS=4.5e-06
mXI104/XI4/MM3 XI104/XI4/NET17 N_NET0225_XI104/XI4/MM3_g N_GND!_XI104/XI4/MM3_s
+ N_GND!_XI121/XI5/MM1_b NMOS_VTG L=5e-08 W=1.63e-06 AD=2.282e-13 AS=1.77425e-13
+ PD=3.54e-06 PS=3.485e-06
mXI104/XI4/MM1 N_XI104/NET8_XI104/XI4/MM1_d N_NET0123_XI104/XI4/MM1_g
+ XI104/XI4/NET17 N_GND!_XI121/XI5/MM1_b NMOS_VTG L=5e-08 W=1.63e-06
+ AD=1.834e-13 AS=2.282e-13 PD=3.49e-06 PS=3.54e-06
mXI104/XI4/MM2 N_XI104/NET8_XI104/XI4/MM2_d N_NET0225_XI104/XI4/MM2_g
+ N_VDD!_XI104/XI4/MM2_s N_VDD!_XI121/XI5/MM0_b PMOS_VTG L=5e-08 W=1.44e-06
+ AD=2.016e-13 AS=1.58175e-13 PD=3.16e-06 PS=3.105e-06
mXI104/XI4/MM0 N_XI104/NET8_XI104/XI4/MM2_d N_NET0123_XI104/XI4/MM0_g
+ N_VDD!_XI104/XI4/MM0_s N_VDD!_XI121/XI5/MM0_b PMOS_VTG L=5e-08 W=1.44e-06
+ AD=2.016e-13 AS=1.512e-13 PD=3.16e-06 PS=3.11e-06
mXI104/XI5/MM1 N_NET0221_XI104/XI5/MM1_d N_XI104/NET8_XI104/XI5/MM1_g
+ N_GND!_XI104/XI5/MM1_s N_GND!_XI121/XI5/MM1_b NMOS_VTG L=5e-08 W=1.44e-06
+ AD=1.161e-13 AS=1.0845e-13 PD=3.36e-06 PS=3.19e-06
mXI104/XI5/MM0 N_NET0221_XI104/XI5/MM0_d N_XI104/NET8_XI104/XI5/MM0_g
+ N_VDD!_XI104/XI5/MM0_s N_VDD!_XI121/XI5/MM0_b PMOS_VTG L=5e-08 W=1.96e-06
+ AD=1.6015e-13 AS=1.57e-13 PD=4.57e-06 PS=4.5e-06
mXI82/XI4/MM3 XI82/XI4/NET17 N_CIN_XI82/XI4/MM3_g N_GND!_XI82/XI4/MM3_s
+ N_GND!_XI121/XI5/MM1_b NMOS_VTG L=5e-08 W=1.63e-06 AD=2.282e-13 AS=1.77425e-13
+ PD=3.54e-06 PS=3.485e-06
mXI82/XI4/MM1 N_XI82/NET8_XI82/XI4/MM1_d N_NET0158_XI82/XI4/MM1_g XI82/XI4/NET17
+ N_GND!_XI121/XI5/MM1_b NMOS_VTG L=5e-08 W=1.63e-06 AD=1.834e-13 AS=2.282e-13
+ PD=3.49e-06 PS=3.54e-06
mXI82/XI4/MM2 N_XI82/NET8_XI82/XI4/MM2_d N_CIN_XI82/XI4/MM2_g
+ N_VDD!_XI82/XI4/MM2_s N_VDD!_XI122/XI5/MM0_b PMOS_VTG L=5e-08 W=1.44e-06
+ AD=2.016e-13 AS=1.58175e-13 PD=3.16e-06 PS=3.105e-06
mXI82/XI4/MM0 N_XI82/NET8_XI82/XI4/MM2_d N_NET0158_XI82/XI4/MM0_g
+ N_VDD!_XI82/XI4/MM0_s N_VDD!_XI122/XI5/MM0_b PMOS_VTG L=5e-08 W=1.44e-06
+ AD=2.016e-13 AS=1.512e-13 PD=3.16e-06 PS=3.11e-06
mXI82/XI5/MM1 N_NET0236_XI82/XI5/MM1_d N_XI82/NET8_XI82/XI5/MM1_g
+ N_GND!_XI82/XI5/MM1_s N_GND!_XI121/XI5/MM1_b NMOS_VTG L=5e-08 W=1.44e-06
+ AD=1.161e-13 AS=1.0845e-13 PD=3.36e-06 PS=3.19e-06
mXI82/XI5/MM0 N_NET0236_XI82/XI5/MM0_d N_XI82/NET8_XI82/XI5/MM0_g
+ N_VDD!_XI82/XI5/MM0_s N_VDD!_XI122/XI5/MM0_b PMOS_VTG L=5e-08 W=1.96e-06
+ AD=1.6015e-13 AS=1.57e-13 PD=4.57e-06 PS=4.5e-06
mXI84/XI4/MM3 XI84/XI4/NET17 N_NET0167_XI84/XI4/MM3_g N_GND!_XI84/XI4/MM3_s
+ N_GND!_XI121/XI5/MM1_b NMOS_VTG L=5e-08 W=1.63e-06 AD=2.282e-13 AS=1.77425e-13
+ PD=3.54e-06 PS=3.485e-06
mXI84/XI4/MM1 N_XI84/NET8_XI84/XI4/MM1_d N_NET25_XI84/XI4/MM1_g XI84/XI4/NET17
+ N_GND!_XI121/XI5/MM1_b NMOS_VTG L=5e-08 W=1.63e-06 AD=1.834e-13 AS=2.282e-13
+ PD=3.49e-06 PS=3.54e-06
mXI84/XI4/MM2 N_XI84/NET8_XI84/XI4/MM2_d N_NET0167_XI84/XI4/MM2_g
+ N_VDD!_XI84/XI4/MM2_s N_VDD!_XI122/XI5/MM0_b PMOS_VTG L=5e-08 W=1.44e-06
+ AD=2.016e-13 AS=1.58175e-13 PD=3.16e-06 PS=3.105e-06
mXI84/XI4/MM0 N_XI84/NET8_XI84/XI4/MM2_d N_NET25_XI84/XI4/MM0_g
+ N_VDD!_XI84/XI4/MM0_s N_VDD!_XI122/XI5/MM0_b PMOS_VTG L=5e-08 W=1.44e-06
+ AD=2.016e-13 AS=1.512e-13 PD=3.16e-06 PS=3.11e-06
mXI84/XI5/MM1 N_NET0154_XI84/XI5/MM1_d N_XI84/NET8_XI84/XI5/MM1_g
+ N_GND!_XI84/XI5/MM1_s N_GND!_XI121/XI5/MM1_b NMOS_VTG L=5e-08 W=1.44e-06
+ AD=1.161e-13 AS=1.0845e-13 PD=3.36e-06 PS=3.19e-06
mXI84/XI5/MM0 N_NET0154_XI84/XI5/MM0_d N_XI84/NET8_XI84/XI5/MM0_g
+ N_VDD!_XI84/XI5/MM0_s N_VDD!_XI122/XI5/MM0_b PMOS_VTG L=5e-08 W=1.96e-06
+ AD=1.6015e-13 AS=1.57e-13 PD=4.57e-06 PS=4.5e-06
mXI100/XI4/MM3 XI100/XI4/NET17 N_NET0108_XI100/XI4/MM3_g N_GND!_XI100/XI4/MM3_s
+ N_GND!_XI121/XI5/MM1_b NMOS_VTG L=5e-08 W=1.63e-06 AD=2.282e-13 AS=1.77425e-13
+ PD=3.54e-06 PS=3.485e-06
mXI100/XI4/MM1 N_XI100/NET8_XI100/XI4/MM1_d N_NET089_XI100/XI4/MM1_g
+ XI100/XI4/NET17 N_GND!_XI121/XI5/MM1_b NMOS_VTG L=5e-08 W=1.63e-06
+ AD=1.834e-13 AS=2.282e-13 PD=3.49e-06 PS=3.54e-06
mXI100/XI4/MM2 N_XI100/NET8_XI100/XI4/MM2_d N_NET0108_XI100/XI4/MM2_g
+ N_VDD!_XI100/XI4/MM2_s N_VDD!_XI121/XI5/MM0_b PMOS_VTG L=5e-08 W=1.44e-06
+ AD=2.016e-13 AS=1.58175e-13 PD=3.16e-06 PS=3.105e-06
mXI100/XI4/MM0 N_XI100/NET8_XI100/XI4/MM2_d N_NET089_XI100/XI4/MM0_g
+ N_VDD!_XI100/XI4/MM0_s N_VDD!_XI121/XI5/MM0_b PMOS_VTG L=5e-08 W=1.44e-06
+ AD=2.016e-13 AS=1.512e-13 PD=3.16e-06 PS=3.11e-06
mXI100/XI5/MM1 N_NET0106_XI100/XI5/MM1_d N_XI100/NET8_XI100/XI5/MM1_g
+ N_GND!_XI100/XI5/MM1_s N_GND!_XI121/XI5/MM1_b NMOS_VTG L=5e-08 W=1.44e-06
+ AD=1.161e-13 AS=1.0845e-13 PD=3.36e-06 PS=3.19e-06
mXI100/XI5/MM0 N_NET0106_XI100/XI5/MM0_d N_XI100/NET8_XI100/XI5/MM0_g
+ N_VDD!_XI100/XI5/MM0_s N_VDD!_XI121/XI5/MM0_b PMOS_VTG L=5e-08 W=1.96e-06
+ AD=1.6015e-13 AS=1.57e-13 PD=4.57e-06 PS=4.5e-06
mXI106/XI4/MM3 XI106/XI4/NET17 N_NET0105_XI106/XI4/MM3_g N_GND!_XI106/XI4/MM3_s
+ N_GND!_XI121/XI5/MM1_b NMOS_VTG L=5e-08 W=1.63e-06 AD=2.282e-13 AS=1.77425e-13
+ PD=3.54e-06 PS=3.485e-06
mXI106/XI4/MM1 N_XI106/NET8_XI106/XI4/MM1_d N_NET0121_XI106/XI4/MM1_g
+ XI106/XI4/NET17 N_GND!_XI121/XI5/MM1_b NMOS_VTG L=5e-08 W=1.63e-06
+ AD=1.834e-13 AS=2.282e-13 PD=3.49e-06 PS=3.54e-06
mXI106/XI4/MM2 N_XI106/NET8_XI106/XI4/MM2_d N_NET0105_XI106/XI4/MM2_g
+ N_VDD!_XI106/XI4/MM2_s N_VDD!_XI121/XI5/MM0_b PMOS_VTG L=5e-08 W=1.44e-06
+ AD=2.016e-13 AS=1.58175e-13 PD=3.16e-06 PS=3.105e-06
mXI106/XI4/MM0 N_XI106/NET8_XI106/XI4/MM2_d N_NET0121_XI106/XI4/MM0_g
+ N_VDD!_XI106/XI4/MM0_s N_VDD!_XI121/XI5/MM0_b PMOS_VTG L=5e-08 W=1.44e-06
+ AD=2.016e-13 AS=1.512e-13 PD=3.16e-06 PS=3.11e-06
mXI106/XI5/MM1 N_NET0200_XI106/XI5/MM1_d N_XI106/NET8_XI106/XI5/MM1_g
+ N_GND!_XI106/XI5/MM1_s N_GND!_XI121/XI5/MM1_b NMOS_VTG L=5e-08 W=1.44e-06
+ AD=1.161e-13 AS=1.0845e-13 PD=3.36e-06 PS=3.19e-06
mXI106/XI5/MM0 N_NET0200_XI106/XI5/MM0_d N_XI106/NET8_XI106/XI5/MM0_g
+ N_VDD!_XI106/XI5/MM0_s N_VDD!_XI121/XI5/MM0_b PMOS_VTG L=5e-08 W=1.96e-06
+ AD=1.6015e-13 AS=1.57e-13 PD=4.57e-06 PS=4.5e-06
mXI90/XI4/MM3 XI90/XI4/NET17 N_NET5_XI90/XI4/MM3_g N_GND!_XI90/XI4/MM3_s
+ N_GND!_XI121/XI5/MM1_b NMOS_VTG L=5e-08 W=1.63e-06 AD=2.282e-13 AS=1.77425e-13
+ PD=3.54e-06 PS=3.485e-06
mXI90/XI4/MM1 N_XI90/NET8_XI90/XI4/MM1_d N_NET0130_XI90/XI4/MM1_g XI90/XI4/NET17
+ N_GND!_XI121/XI5/MM1_b NMOS_VTG L=5e-08 W=1.63e-06 AD=1.834e-13 AS=2.282e-13
+ PD=3.49e-06 PS=3.54e-06
mXI90/XI4/MM2 N_XI90/NET8_XI90/XI4/MM2_d N_NET5_XI90/XI4/MM2_g
+ N_VDD!_XI90/XI4/MM2_s N_VDD!_XI122/XI5/MM0_b PMOS_VTG L=5e-08 W=1.44e-06
+ AD=2.016e-13 AS=1.58175e-13 PD=3.16e-06 PS=3.105e-06
mXI90/XI4/MM0 N_XI90/NET8_XI90/XI4/MM2_d N_NET0130_XI90/XI4/MM0_g
+ N_VDD!_XI90/XI4/MM0_s N_VDD!_XI122/XI5/MM0_b PMOS_VTG L=5e-08 W=1.44e-06
+ AD=2.016e-13 AS=1.512e-13 PD=3.16e-06 PS=3.11e-06
mXI90/XI5/MM1 N_NET0112_XI90/XI5/MM1_d N_XI90/NET8_XI90/XI5/MM1_g
+ N_GND!_XI90/XI5/MM1_s N_GND!_XI121/XI5/MM1_b NMOS_VTG L=5e-08 W=1.44e-06
+ AD=1.161e-13 AS=1.0845e-13 PD=3.36e-06 PS=3.19e-06
mXI90/XI5/MM0 N_NET0112_XI90/XI5/MM0_d N_XI90/NET8_XI90/XI5/MM0_g
+ N_VDD!_XI90/XI5/MM0_s N_VDD!_XI122/XI5/MM0_b PMOS_VTG L=5e-08 W=1.96e-06
+ AD=1.6015e-13 AS=1.57e-13 PD=4.57e-06 PS=4.5e-06
mXI94/XI4/MM3 XI94/XI4/NET17 N_NET0232_XI94/XI4/MM3_g N_GND!_XI94/XI4/MM3_s
+ N_GND!_XI121/XI5/MM1_b NMOS_VTG L=5e-08 W=1.63e-06 AD=2.282e-13 AS=1.77425e-13
+ PD=3.54e-06 PS=3.485e-06
mXI94/XI4/MM1 N_XI94/NET8_XI94/XI4/MM1_d N_NET086_XI94/XI4/MM1_g XI94/XI4/NET17
+ N_GND!_XI121/XI5/MM1_b NMOS_VTG L=5e-08 W=1.63e-06 AD=1.834e-13 AS=2.282e-13
+ PD=3.49e-06 PS=3.54e-06
mXI94/XI4/MM2 N_XI94/NET8_XI94/XI4/MM2_d N_NET0232_XI94/XI4/MM2_g
+ N_VDD!_XI94/XI4/MM2_s N_VDD!_XI122/XI5/MM0_b PMOS_VTG L=5e-08 W=1.44e-06
+ AD=2.016e-13 AS=1.58175e-13 PD=3.16e-06 PS=3.105e-06
mXI94/XI4/MM0 N_XI94/NET8_XI94/XI4/MM2_d N_NET086_XI94/XI4/MM0_g
+ N_VDD!_XI94/XI4/MM0_s N_VDD!_XI122/XI5/MM0_b PMOS_VTG L=5e-08 W=1.44e-06
+ AD=2.016e-13 AS=1.512e-13 PD=3.16e-06 PS=3.11e-06
mXI94/XI5/MM1 N_NET0109_XI94/XI5/MM1_d N_XI94/NET8_XI94/XI5/MM1_g
+ N_GND!_XI94/XI5/MM1_s N_GND!_XI121/XI5/MM1_b NMOS_VTG L=5e-08 W=1.44e-06
+ AD=1.161e-13 AS=1.0845e-13 PD=3.36e-06 PS=3.19e-06
mXI94/XI5/MM0 N_NET0109_XI94/XI5/MM0_d N_XI94/NET8_XI94/XI5/MM0_g
+ N_VDD!_XI94/XI5/MM0_s N_VDD!_XI122/XI5/MM0_b PMOS_VTG L=5e-08 W=1.96e-06
+ AD=1.6015e-13 AS=1.57e-13 PD=4.57e-06 PS=4.5e-06
mXI112/XI4/MM3 XI112/XI4/NET17 N_NET0204_XI112/XI4/MM3_g N_GND!_XI112/XI4/MM3_s
+ N_GND!_XI121/XI5/MM1_b NMOS_VTG L=5e-08 W=1.63e-06 AD=2.282e-13 AS=1.77425e-13
+ PD=3.54e-06 PS=3.485e-06
mXI112/XI4/MM1 N_XI112/NET8_XI112/XI4/MM1_d N_NET090_XI112/XI4/MM1_g
+ XI112/XI4/NET17 N_GND!_XI121/XI5/MM1_b NMOS_VTG L=5e-08 W=1.63e-06
+ AD=1.834e-13 AS=2.282e-13 PD=3.49e-06 PS=3.54e-06
mXI112/XI4/MM2 N_XI112/NET8_XI112/XI4/MM2_d N_NET0204_XI112/XI4/MM2_g
+ N_VDD!_XI112/XI4/MM2_s N_VDD!_XI121/XI5/MM0_b PMOS_VTG L=5e-08 W=1.44e-06
+ AD=2.016e-13 AS=1.58175e-13 PD=3.16e-06 PS=3.105e-06
mXI112/XI4/MM0 N_XI112/NET8_XI112/XI4/MM2_d N_NET090_XI112/XI4/MM0_g
+ N_VDD!_XI112/XI4/MM0_s N_VDD!_XI121/XI5/MM0_b PMOS_VTG L=5e-08 W=1.44e-06
+ AD=2.016e-13 AS=1.512e-13 PD=3.16e-06 PS=3.11e-06
mXI112/XI5/MM1 N_NET0100_XI112/XI5/MM1_d N_XI112/NET8_XI112/XI5/MM1_g
+ N_GND!_XI112/XI5/MM1_s N_GND!_XI121/XI5/MM1_b NMOS_VTG L=5e-08 W=1.44e-06
+ AD=1.161e-13 AS=1.0845e-13 PD=3.36e-06 PS=3.19e-06
mXI112/XI5/MM0 N_NET0100_XI112/XI5/MM0_d N_XI112/NET8_XI112/XI5/MM0_g