* File: KoggeStone.pex.netlist.pex
* Created: Thu Jun  6 14:04:56 2013
* Program "Calibre xRC"
* Version "v2011.4_35.27"
* Nominal Temperature: 27C
* Circuit Temperature: 27C
* 
.subckt PM_KOGGESTONE%XI121/NET8 1 2 5 8 10 12 15 18 19 25 27 30 34
c88 34 0 0.00466835f
c89 31 0 6.97819e-19
c90 30 0 0.00705543f
c91 27 0 0.0158018f
c92 25 0 0.00762599f
c93 19 0 0.00492652f
c94 18 0 0.00850932f
c95 15 0 0.0327668f
c96 12 0 0.0303322f
c97 10 0 0.10413f
c98 8 0 0.00605456f
c99 1 0 0.140694f
r100 32 34 0.57
r101 29 34 0.0223169
r102 29 30 1.78308
r103 26 31 0.0418175
r104 26 27 2.39692
r105 25 32 0.0223169
r106 24 31 0.160909
r107 24 25 1.56385
r108 20 31 0.160909
r109 18 30 0.212317
r110 18 19 1.31538
r111 14 19 0.212317
r112 14 15 3.21538
r113 12 20 2.23323
r114 8 10 4.7687
r115 8 27 89.3538
r116 5 10 120.12
r117 1 8 4.7687
r118 1 2 160.68
.ends

.subckt PM_KOGGESTONE%XI122/NET8 1 2 5 8 10 12 15 18 19 25 27 30 34
c111 34 0 0.00417439f
c112 31 0 6.70844e-19
c113 30 0 0.00502998f
c114 27 0 0.0130783f
c115 25 0 0.00541519f
c116 19 0 0.00340086f
c117 18 0 0.00830488f
c118 15 0 0.0187595f
c119 12 0 0.0257965f
c120 10 0 0.0985266f
c121 8 0 0.00584993f
c122 1 0 0.13024f
r123 32 34 0.57
r124 29 34 0.0223169
r125 29 30 1.78308
r126 26 31 0.0418175
r127 26 27 2.39692
r128 25 32 0.0223169
r129 24 31 0.160909
r130 24 25 1.56385
r131 20 31 0.160909
r132 18 30 0.212317
r133 18 19 1.31538
r134 14 19 0.212317
r135 14 15 3.21538
r136 12 20 2.23323
r137 8 10 4.7687
r138 8 27 89.3538
r139 5 10 120.12
r140 1 8 4.7687
r141 1 2 160.68
.ends

.subckt PM_KOGGESTONE%XI115/NET8 1 2 5 8 10 12 15 18 19 25 27 30 34
c90 34 0 0.0028261f
c91 31 0 5.60361e-19
c92 30 0 0.00118782f
c93 27 0 0.0123234f
c94 25 0 0.00677172f
c95 19 0 0.00407092f
c96 18 0 0.00670271f
c97 15 0 0.0327887f
c98 12 0 0.0280077f
c99 10 0 0.105169f
c100 8 0 0.00568369f
c101 1 0 0.116546f
r102 32 34 0.57
r103 29 34 0.0223169
r104 29 30 1.78308
r105 26 31 0.0418175
r106 26 27 2.39692
r107 25 32 0.0223169
r108 24 31 0.160909
r109 24 25 1.56385
r110 20 31 0.160909
r111 18 30 0.212317
r112 18 19 1.31538
r113 14 19 0.212317
r114 14 15 3.21538
r115 12 20 2.23323
r116 8 10 4.7687
r117 8 27 89.3538
r118 5 10 120.12
r119 1 8 4.7687
r120 1 2 160.68
.ends

.subckt PM_KOGGESTONE%XI109/NET8 1 2 5 8 10 12 15 18 19 25 27 30 34
c90 34 0 0.00354391f
c91 31 0 0.00131517f
c92 30 0 0.00448398f
c93 27 0 0.0124134f
c94 25 0 0.00967931f
c95 19 0 0.00483091f
c96 18 0 0.00711117f
c97 15 0 0.0295285f
c98 12 0 0.0419401f
c99 10 0 0.105169f
c100 8 0 0.00569401f
c101 1 0 0.140607f
r102 32 34 0.57
r103 29 34 0.0223169
r104 29 30 1.78308
r105 26 31 0.0418175
r106 26 27 2.39692
r107 25 32 0.0223169
r108 24 31 0.160909
r109 24 25 1.56385
r110 20 31 0.160909
r111 18 30 0.212317
r112 18 19 1.31538
r113 14 19 0.212317
r114 14 15 3.21538
r115 12 20 2.23323
r116 8 10 4.7687
r117 8 27 89.3538
r118 5 10 120.12
r119 1 8 4.7687
r120 1 2 160.68
.ends

.subckt PM_KOGGESTONE%XI103/NET8 1 2 5 8 10 12 15 18 19 25 27 30 34
c94 34 0 0.00345679f
c95 31 0 0.00129009f
c96 30 0 0.00448281f
c97 27 0 0.0125034f
c98 25 0 0.00967931f
c99 19 0 0.00483091f
c100 18 0 0.00695166f
c101 15 0 0.0283267f
c102 12 0 0.0419401f
c103 10 0 0.105169f
c104 8 0 0.005704f
c105 1 0 0.139768f
r106 32 34 0.57
r107 29 34 0.0223169
r108 29 30 1.78308
r109 26 31 0.0418175
r110 26 27 2.39692
r111 25 32 0.0223169
r112 24 31 0.160909
r113 24 25 1.56385
r114 20 31 0.160909
r115 18 30 0.212317
r116 18 19 1.31538
r117 14 19 0.212317
r118 14 15 3.21538
r119 12 20 2.23323
r120 8 10 4.7687
r121 8 27 89.3538
r122 5 10 120.12
r123 1 8 4.7687
r124 1 2 160.68
.ends

.subckt PM_KOGGESTONE%XI97/NET8 1 2 5 8 10 12 15 18 19 25 27 30 34
c99 34 0 0.00336966f
c100 31 0 0.00126501f
c101 30 0 0.00448164f
c102 27 0 0.0125935f
c103 25 0 0.00967931f
c104 19 0 0.00474473f
c105 18 0 0.00678111f
c106 15 0 0.0260747f
c107 12 0 0.0419401f
c108 10 0 0.105169f
c109 8 0 0.00605456f
c110 1 0 0.138152f
r111 32 34 0.57
r112 29 34 0.0223169
r113 29 30 1.78308
r114 26 31 0.0418175
r115 26 27 2.39692
r116 25 32 0.0223169
r117 24 31 0.160909
r118 24 25 1.56385
r119 20 31 0.160909
r120 18 30 0.212317
r121 18 19 1.31538
r122 14 19 0.212317
r123 14 15 3.21538
r124 12 20 2.23323
r125 8 10 4.7687
r126 8 27 89.3538
r127 5 10 120.12
r128 1 8 4.7687
r129 1 2 160.68
.ends

.subckt PM_KOGGESTONE%XI91/NET8 1 2 5 8 10 12 15 18 19 25 27 30 34
c101 34 0 0.00328254f
c102 31 0 0.00123993f
c103 30 0 0.00439576f
c104 27 0 0.0126835f
c105 25 0 0.00967931f
c106 19 0 0.00415575f
c107 18 0 0.00452902f
c108 15 0 0.026821f
c109 12 0 0.0406599f
c110 10 0 0.105169f
c111 8 0 0.00605456f
c112 1 0 0.137875f
r113 32 34 0.57
r114 29 34 0.0223169
r115 29 30 1.78308
r116 26 31 0.0418175
r117 26 27 2.39692
r118 25 32 0.0223169
r119 24 31 0.160909
r120 24 25 1.56385
r121 20 31 0.160909
r122 18 30 0.212317
r123 18 19 1.31538
r124 14 19 0.212317
r125 14 15 3.21538
r126 12 20 2.23323
r127 8 10 4.7687
r128 8 27 89.3538
r129 5 10 120.12
r130 1 8 4.7687
r131 1 2 160.68
.ends

.subckt PM_KOGGESTONE%XI87/NET8 1 2 5 8 10 12 15 18 19 25 27 30 34
c108 34 0 0.00323898f
c109 31 0 0.00122739f
c110 30 0 0.00447986f
c111 27 0 0.0127285f
c112 25 0 0.00967931f
c113 19 0 0.00441619f
c114 18 0 0.0044892f
c115 15 0 0.0263448f
c116 12 0 0.039059f
c117 10 0 0.104389f
c118 8 0 0.00616376f
c119 1 0 0.137001f
r120 32 34 0.57
r121 29 34 0.0223169
r122 29 30 1.78308
r123 26 31 0.0418175
r124 26 27 2.39692
r125 25 32 0.0223169
r126 24 31 0.160909
r127 24 25 1.56385
r128 20 31 0.160909
r129 18 30 0.212317
r130 18 19 1.31538
r131 14 19 0.212317
r132 14 15 3.21538
r133 12 20 2.23323
r134 8 10 4.7687
r135 8 27 89.3538
r136 5 10 120.12
r137 1 8 4.7687
r138 1 2 160.68
.ends

.subckt PM_KOGGESTONE%XI83/NET8 1 2 5 8 10 12 15 18 19 25 27 30 34
c109 34 0 0.00323898f
c110 31 0 0.00122739f
c111 30 0 0.00447986f
c112 27 0 0.0127958f
c113 25 0 0.00826882f
c114 19 0 0.00441619f
c115 18 0 0.00437925f
c116 15 0 0.0270703f
c117 12 0 0.0398226f
c118 10 0 0.103532f
c119 8 0 0.00610707f
c120 1 0 0.137811f
r121 32 34 0.57
r122 29 34 0.0223169
r123 29 30 1.78308
r124 26 31 0.0418175
r125 26 27 2.39692
r126 25 32 0.0223169
r127 24 31 0.160909
r128 24 25 1.56385
r129 20 31 0.160909
r130 18 30 0.212317
r131 18 19 1.31538
r132 14 19 0.212317
r133 14 15 3.21538
r134 12 20 2.23323
r135 8 10 4.7687
r136 8 27 89.3538
r137 5 10 120.12
r138 1 8 4.7687
r139 1 2 160.68
.ends

.subckt PM_KOGGESTONE%XI81/NET8 1 2 5 8 10 12 15 18 19 25 27 30 34
c119 34 0 0.00335835f
c120 31 0 0.00115399f
c121 30 0 0.00447986f
c122 27 0 0.0117906f
c123 25 0 0.00667396f
c124 19 0 0.00402159f
c125 18 0 0.00436373f
c126 15 0 0.0238644f
c127 12 0 0.0335478f
c128 10 0 0.0984555f
c129 8 0 0.0060868f
c130 1 0 0.130868f
r131 32 34 0.57
r132 29 34 0.0223169
r133 29 30 1.78308
r134 26 31 0.0418175
r135 26 27 2.39692
r136 25 32 0.0223169
r137 24 31 0.160909
r138 24 25 1.56385
r139 20 31 0.160909
r140 18 30 0.212317
r141 18 19 1.31538
r142 14 19 0.212317
r143 14 15 3.21538
r144 12 20 2.23323
r145 8 10 4.7687
r146 8 27 89.3538
r147 5 10 120.12
r148 1 8 4.7687
r149 1 2 160.68
.ends

.subckt PM_KOGGESTONE%XI98/NET8 1 2 5 8 10 12 15 18 19 25 27 30 34
c111 34 0 0.00447337f
c112 31 0 6.70844e-19
c113 30 0 0.00564058f
c114 27 0 0.0155553f
c115 25 0 0.00643225f
c116 19 0 0.00397031f
c117 18 0 0.00848242f
c118 15 0 0.0257747f
c119 12 0 0.0285673f
c120 10 0 0.101053f
c121 8 0 0.00604868f
c122 1 0 0.137242f
r123 32 34 0.57
r124 29 34 0.0223169
r125 29 30 1.78308
r126 26 31 0.0418175
r127 26 27 2.39692
r128 25 32 0.0223169
r129 24 31 0.160909
r130 24 25 1.56385
r131 20 31 0.160909
r132 18 30 0.212317
r133 18 19 1.31538
r134 14 19 0.212317
r135 14 15 3.21538
r136 12 20 2.23323
r137 8 10 4.7687
r138 8 27 89.3538
r139 5 10 120.12
r140 1 8 4.7687
r141 1 2 160.68
.ends

.subckt PM_KOGGESTONE%XI104/NET8 1 2 5 8 10 12 15 18 19 25 27 30 31 34
c109 34 0 0.00445887f
c110 31 0 8.12568e-19
c111 30 0 0.0064957f
c112 27 0 0.0125832f
c113 25 0 0.00646999f
c114 19 0 0.00483091f
c115 18 0 0.00842977f
c116 15 0 0.0328238f
c117 12 0 0.0330073f
c118 10 0 0.10139f
c119 8 0 0.00578365f
c120 1 0 0.138443f
r121 32 34 0.57
r122 29 34 0.0223169
r123 29 30 1.78308
r124 26 31 0.0418175
r125 26 27 2.39692
r126 25 32 0.0223169
r127 24 31 0.160909
r128 24 25 1.56385
r129 20 31 0.160909
r130 18 30 0.212317
r131 18 19 1.31538
r132 14 19 0.212317
r133 14 15 3.21538
r134 12 20 2.23323
r135 8 10 4.7687
r136 8 27 89.3538
r137 5 10 120.12
r138 1 8 4.7687
r139 1 2 160.68
.ends

.subckt PM_KOGGESTONE%XI82/NET8 1 2 5 8 10 12 15 18 19 25 27 30 34
c115 34 0 0.00417839f
c116 31 0 8.45998e-19
c117 30 0 0.00519075f
c118 27 0 0.0151869f
c119 25 0 0.00618481f
c120 19 0 0.00345211f
c121 18 0 0.00820675f
c122 15 0 0.0182741f
c123 12 0 0.0268641f
c124 10 0 0.0945123f
c125 8 0 0.00575166f
c126 1 0 0.12729f
r127 32 34 0.57
r128 29 34 0.0223169
r129 29 30 1.78308
r130 26 31 0.0418175
r131 26 27 2.39692
r132 25 32 0.0223169
r133 24 31 0.160909
r134 24 25 1.56385
r135 20 31 0.160909
r136 18 30 0.212317
r137 18 19 1.31538
r138 14 19 0.212317
r139 14 15 3.21538
r140 12 20 2.23323
r141 8 10 4.7687
r142 8 27 89.3538
r143 5 10 120.12
r144 1 8 4.7687
r145 1 2 160.68
.ends

.subckt PM_KOGGESTONE%XI84/NET8 1 2 5 8 10 12 15 18 19 25 27 30 34
c117 34 0 0.00421518f
c118 31 0 8.2285e-19
c119 30 0 0.00571418f
c120 27 0 0.015498f
c121 25 0 0.00613465f
c122 19 0 0.00332868f
c123 18 0 0.00823257f
c124 15 0 0.0203588f
c125 12 0 0.0282804f
c126 10 0 0.0945403f
c127 8 0 0.00575166f
c128 1 0 0.118717f
r129 32 34 0.57
r130 29 34 0.0223169
r131 29 30 1.78308
r132 26 31 0.0418175
r133 26 27 2.39692
r134 25 32 0.0223169
r135 24 31 0.160909
r136 24 25 1.56385
r137 20 31 0.160909
r138 18 30 0.212317
r139 18 19 1.31538
r140 14 19 0.212317
r141 14 15 3.21538
r142 12 20 2.23323
r143 8 10 4.7687
r144 8 27 89.3538
r145 5 10 120.12
r146 1 8 4.7687
r147 1 2 160.68
.ends

.subckt PM_KOGGESTONE%XI100/NET8 1 2 5 8 10 12 15 18 19 25 27 30 31 34
c116 34 0 0.00506946f
c117 31 0 9.54144e-19
c118 30 0 0.00633379f
c119 27 0 0.0128207f
c120 25 0 0.0094967f
c121 19 0 0.0042952f
c122 18 0 0.00826115f
c123 15 0 0.0297947f
c124 12 0 0.0298969f
c125 10 0 0.103903f
c126 8 0 0.00565301f
c127 1 0 0.134048f
r128 32 34 0.57
r129 29 34 0.0223169
r130 29 30 1.78308
r131 26 31 0.0418175
r132 26 27 2.39692
r133 25 32 0.0223169
r134 24 31 0.160909
r135 24 25 1.56385
r136 20 31 0.160909
r137 18 30 0.212317
r138 18 19 1.31538
r139 14 19 0.212317
r140 14 15 3.21538
r141 12 20 2.23323
r142 8 10 4.7687
r143 8 27 89.3538
r144 5 10 120.12
r145 1 8 4.7687
r146 1 2 160.68
.ends

.subckt PM_KOGGESTONE%XI106/NET8 1 2 5 8 10 12 15 18 19 25 27 30 31 34
c113 34 0 0.00489355f
c114 31 0 0.00110862f
c115 30 0 0.00633379f
c116 27 0 0.0127639f
c117 25 0 0.00813841f
c118 19 0 0.00429564f
c119 18 0 0.00810213f
c120 15 0 0.0300871f
c121 12 0 0.0370366f
c122 10 0 0.104658f
c123 8 0 0.00565301f
c124 1 0 0.135248f
r125 32 34 0.57
r126 29 34 0.0223169
r127 29 30 1.78308
r128 26 31 0.0418175
r129 26 27 2.39692
r130 25 32 0.0223169
r131 24 31 0.160909
r132 24 25 1.56385
r133 20 31 0.160909
r134 18 30 0.212317
r135 18 19 1.31538
r136 14 19 0.212317
r137 14 15 3.21538
r138 12 20 2.23323
r139 8 10 4.7687
r140 8 27 89.3538
r141 5 10 120.12
r142 1 8 4.7687
r143 1 2 160.68
.ends

.subckt PM_KOGGESTONE%XI90/NET8 1 2 5 8 10 12 15 18 19 25 27 30 31 34
c131 34 0 0.00429394f
c132 31 0 9.54144e-19
c133 30 0 0.00510212f
c134 27 0 0.0140464f
c135 25 0 0.00613787f
c136 19 0 0.00372383f
c137 18 0 0.00635767f
c138 15 0 0.0209713f
c139 12 0 0.0291692f
c140 10 0 0.0915862f
c141 8 0 0.00566024f
c142 1 0 0.118451f
r143 32 34 0.57
r144 29 34 0.0223169
r145 29 30 1.78308
r146 26 31 0.0418175
r147 26 27 2.39692
r148 25 32 0.0223169
r149 24 31 0.160909
r150 24 25 1.56385
r151 20 31 0.160909
r152 18 30 0.212317
r153 18 19 1.31538
r154 14 19 0.212317
r155 14 15 3.21538
r156 12 20 2.23323
r157 8 10 4.7687
r158 8 27 89.3538
r159 5 10 120.12
r160 1 8 4.7687
r161 1 2 160.68
.ends

.subckt PM_KOGGESTONE%XI94/NET8 1 2 5 8 10 12 15 18 19 25 27 30 31 34
c127 34 0 0.00417332f
c128 31 0 9.60369e-19
c129 30 0 0.00619848f
c130 27 0 0.0147729f
c131 25 0 0.00561352f
c132 19 0 0.00378295f
c133 18 0 0.00623988f
c134 15 0 0.0213514f
c135 12 0 0.0296898f
c136 10 0 0.0977411f
c137 8 0 0.00632139f
c138 1 0 0.135958f
r139 32 34 0.57
r140 29 34 0.0223169
r141 29 30 1.78308
r142 26 31 0.0418175
r143 26 27 2.39692
r144 25 32 0.0223169
r145 24 31 0.160909
r146 24 25 1.56385
r147 20 31 0.160909
r148 18 30 0.212317
r149 18 19 1.31538
r150 14 19 0.212317
r151 14 15 3.21538
r152 12 20 2.23323
r153 8 10 4.7687
r154 8 27 89.3538
r155 5 10 120.12
r156 1 8 4.7687
r157 1 2 160.68
.ends

.subckt PM_KOGGESTONE%XI112/NET8 1 2 5 8 10 12 15 18 19 25 27 30 31 34
c114 34 0 0.00484609f
c115 31 0 9.60369e-19
c116 30 0 0.00633379f
c117 27 0 0.01277f
c118 25 0 0.00736051f
c119 19 0 0.00429564f
c120 18 0 0.00796041f
c121 15 0 0.0301571f
c122 12 0 0.0303715f
c123 10 0 0.104658f
c124 8 0 0.00573817f
c125 1 0 0.134944f
r126 32 34 0.57
r127 29 34 0.0223169
r128 29 30 1.78308
r129 26 31 0.0418175
r130 26 27 2.39692
r131 25 32 0.0223169
r132 24 31 0.160909
r133 24 25 1.56385
r134 20 31 0.160909
r135 18 30 0.212317
r136 18 19 1.31538
r137 14 19 0.212317
r138 14 15 3.21538
r139 12 20 2.23323
r140 8 10 4.7687
r141 8 27 89.3538
r142 5 10 120.12
r143 1 8 4.7687
r144 1 2 160.68
.ends

.subckt PM_KOGGESTONE%XI118/NET8 1 2 5 8 10 12 15 18 19 25 27 30 31 34
c114 34 0 0.00515041f
c115 31 0 9.54144e-19
c116 30 0 0.00644293f
c117 27 0 0.01277f
c118 25 0 0.00761217f
c119 19 0 0.00429564f
c120 18 0 0.0081226f
c121 15 0 0.0299018f
c122 12 0 0.0298969f
c123 10 0 0.104546f
c124 8 0 0.00585095f
c125 1 0 0.134933f
r126 32 34 0.57
r127 29 34 0.0223169
r128 29 30 1.78308
r129 26 31 0.0418175
r130 26 27 2.39692
r131 25 32 0.0223169
r132 24 31 0.160909
r133 24 25 1.56385
r134 20 31 0.160909
r135 18 30 0.212317
r136 18 19 1.31538
r137 14 19 0.212317
r138 14 15 3.21538
r139 12 20 2.23323
r140 8 10 4.7687
r141 8 27 89.3538
r142 5 10 120.12
r143 1 8 4.7687
r144 1 2 160.68
.ends

.subckt PM_KOGGESTONE%XI95/NET8 1 2 5 8 10 12 15 18 19 25 27 30 34
c122 34 0 0.0042007f
c123 31 0 6.97819e-19
c124 30 0 0.00503722f
c125 27 0 0.0147993f
c126 25 0 0.00551657f
c127 19 0 0.00381732f
c128 18 0 0.00728539f
c129 15 0 0.021511f
c130 12 0 0.0287236f
c131 10 0 0.0977411f
c132 8 0 0.00631599f
c133 1 0 0.136402f
r134 32 34 0.57
r135 29 34 0.0223169
r136 29 30 1.78308
r137 26 31 0.0418175
r138 26 27 2.39692
r139 25 32 0.0223169
r140 24 31 0.160909
r141 24 25 1.56385
r142 20 31 0.160909
r143 18 30 0.212317
r144 18 19 1.31538
r145 14 19 0.212317
r146 14 15 3.21538
r147 12 20 2.23323
r148 8 10 4.7687
r149 8 27 89.3538
r150 5 10 120.12
r151 1 8 4.7687
r152 1 2 160.68
.ends

.subckt PM_KOGGESTONE%XI96/NET8 1 2 5 8 10 12 15 18 19 25 27 30 34
c113 34 0 0.00498674f
c114 31 0 6.70844e-19
c115 30 0 0.0054824f
c116 27 0 0.0155819f
c117 25 0 0.00738254f
c118 19 0 0.0038934f
c119 18 0 0.0084494f
c120 15 0 0.0260599f
c121 12 0 0.0323927f
c122 10 0 0.0977189f
c123 8 0 0.00623326f
c124 1 0 0.139196f
r125 32 34 0.57
r126 29 34 0.0223169
r127 29 30 1.78308
r128 26 31 0.0418175
r129 26 27 2.39692
r130 25 32 0.0223169
r131 24 31 0.160909
r132 24 25 1.56385
r133 20 31 0.160909
r134 18 30 0.212317
r135 18 19 1.31538
r136 14 19 0.212317
r137 14 15 3.21538
r138 12 20 2.23323
r139 8 10 4.7687
r140 8 27 89.3538
r141 5 10 120.12
r142 1 8 4.7687
r143 1 2 160.68
.ends

.subckt PM_KOGGESTONE%XI88/NET8 1 2 5 8 10 12 15 18 19 25 27 30 34
c115 34 0 0.00419418f
c116 31 0 6.70844e-19
c117 30 0 0.00561982f
c118 27 0 0.0154716f
c119 25 0 0.00556793f
c120 19 0 0.00427101f
c121 18 0 0.00809808f
c122 15 0 0.0192502f
c123 12 0 0.0278581f
c124 10 0 0.0953125f
c125 8 0 0.00575166f
c126 1 0 0.118892f
r127 32 34 0.57
r128 29 34 0.0223169
r129 29 30 1.78308
r130 26 31 0.0418175
r131 26 27 2.39692
r132 25 32 0.0223169
r133 24 31 0.160909
r134 24 25 1.56385
r135 20 31 0.160909
r136 18 30 0.212317
r137 18 19 1.31538
r138 14 19 0.212317
r139 14 15 3.21538
r140 12 20 2.23323
r141 8 10 4.7687
r142 8 27 89.3538
r143 5 10 120.12
r144 1 8 4.7687
r145 1 2 160.68
.ends

.subckt PM_KOGGESTONE%XI92/NET8 1 2 5 8 10 12 15 18 19 25 27 30 34
c114 34 0 0.00410595f
c115 31 0 6.70844e-19
c116 30 0 0.00435784f
c117 27 0 0.0144781f
c118 25 0 0.00539654f
c119 19 0 0.00444067f
c120 18 0 0.00768514f
c121 15 0 0.01935f
c122 12 0 0.0240704f
c123 10 0 0.0967158f
c124 8 0 0.00577544f
c125 1 0 0.118538f
r126 32 34 0.57
r127 29 34 0.0223169
r128 29 30 1.78308
r129 26 31 0.0418175
r130 26 27 2.39692
r131 25 32 0.0223169
r132 24 31 0.160909
r133 24 25 1.56385
r134 20 31 0.160909
r135 18 30 0.212317
r136 18 19 1.31538
r137 14 19 0.212317
r138 14 15 3.21538
r139 12 20 2.23323
r140 8 10 4.7687
r141 8 27 89.3538
r142 5 10 120.12
r143 1 8 4.7687
r144 1 2 160.68
.ends

.subckt PM_KOGGESTONE%XI110/NET8 1 2 5 8 10 12 15 18 19 25 27 30 31 34
c108 34 0 0.00455585f
c109 31 0 7.27504e-19
c110 30 0 0.00533296f
c111 27 0 0.0126055f
c112 25 0 0.00732319f
c113 19 0 0.00429374f
c114 18 0 0.00802245f
c115 15 0 0.0295311f
c116 12 0 0.0359859f
c117 10 0 0.101411f
c118 8 0 0.0058359f
c119 1 0 0.139644f
r120 32 34 0.57
r121 29 34 0.0223169
r122 29 30 1.78308
r123 26 31 0.0418175
r124 26 27 2.39692
r125 25 32 0.0223169
r126 24 31 0.160909
r127 24 25 1.56385
r128 20 31 0.160909
r129 18 30 0.212317
r130 18 19 1.31538
r131 14 19 0.212317
r132 14 15 3.21538
r133 12 20 2.23323
r134 8 10 4.7687
r135 8 27 89.3538
r136 5 10 120.12
r137 1 8 4.7687
r138 1 2 160.68
.ends

.subckt PM_KOGGESTONE%XI116/NET8 1 2 5 8 10 12 15 18 19 25 27 30 31 34
c115 34 0 0.00424765f
c116 31 0 7.27504e-19
c117 30 0 0.00327562f
c118 27 0 0.0120598f
c119 25 0 0.00561967f
c120 19 0 0.00354455f
c121 18 0 0.00742783f
c122 15 0 0.0163671f
c123 12 0 0.0338238f
c124 10 0 0.100425f
c125 8 0 0.00586432f
c126 1 0 0.138432f
r127 32 34 0.57
r128 29 34 0.0223169
r129 29 30 1.78308
r130 26 31 0.0418175
r131 26 27 2.39692
r132 25 32 0.0223169
r133 24 31 0.160909
r134 24 25 1.56385
r135 20 31 0.160909
r136 18 30 0.212317
r137 18 19 1.31538
r138 14 19 0.212317
r139 14 15 3.21538
r140 12 20 2.23323
r141 8 10 4.7687
r142 8 27 89.3538
r143 5 10 120.12
r144 1 8 4.7687
r145 1 2 160.68
.ends

.subckt PM_KOGGESTONE%XI85/NET8 1 2 5 8 10 12 15 18 19 25 27 30 34
c110 34 0 0.00433493f
c111 31 0 8.08464e-19
c112 30 0 0.00534231f
c113 27 0 0.0155819f
c114 25 0 0.00727168f
c115 19 0 0.00417806f
c116 18 0 0.00815026f
c117 15 0 0.0193483f
c118 12 0 0.0312236f
c119 10 0 0.10413f
c120 8 0 0.00604989f
c121 1 0 0.13556f
r122 32 34 0.57
r123 29 34 0.0223169
r124 29 30 1.78308
r125 26 31 0.0418175
r126 26 27 2.39692
r127 25 32 0.0223169
r128 24 31 0.160909
r129 24 25 1.56385
r130 20 31 0.160909
r131 18 30 0.212317
r132 18 19 1.31538
r133 14 19 0.212317
r134 14 15 3.21538
r135 12 20 2.23323
r136 8 10 4.7687
r137 8 27 89.3538
r138 5 10 120.12
r139 1 8 4.7687
r140 1 2 160.68
.ends

.subckt PM_KOGGESTONE%XI89/NET8 1 2 5 8 10 12 15 18 19 25 27 30 34
c130 34 0 0.00438409f
c131 31 0 6.70844e-19
c132 30 0 0.00677026f
c133 27 0 0.0145515f
c134 25 0 0.00604987f
c135 19 0 0.00444812f
c136 18 0 0.00752467f
c137 15 0 0.0253063f
c138 12 0 0.0282174f
c139 10 0 0.100806f
c140 8 0 0.00627454f
c141 1 0 0.134337f
r142 32 34 0.57
r143 29 34 0.0223169
r144 29 30 1.78308
r145 26 31 0.0418175
r146 26 27 2.39692
r147 25 32 0.0223169
r148 24 31 0.160909
r149 24 25 1.56385
r150 20 31 0.160909
r151 18 30 0.212317
r152 18 19 1.31538
r153 14 19 0.212317
r154 14 15 3.21538
r155 12 20 2.23323
r156 8 10 4.7687
r157 8 27 89.3538
r158 5 10 120.12
r159 1 8 4.7687
r160 1 2 160.68
.ends

.subckt PM_KOGGESTONE%XI99/NET8 1 2 5 8 10 12 15 18 19 25 27 30 31 34
c104 34 0 0.00438466f
c105 31 0 7.27504e-19
c106 30 0 0.00631414f
c107 27 0 0.0125832f
c108 25 0 0.00600619f
c109 19 0 0.00390366f
c110 18 0 0.00850643f
c111 15 0 0.0285391f
c112 12 0 0.0305504f
c113 10 0 0.100772f
c114 8 0 0.00582669f
c115 1 0 0.138432f
r116 32 34 0.57
r117 29 34 0.0223169
r118 29 30 1.78308
r119 26 31 0.0418175
r120 26 27 2.39692
r121 25 32 0.0223169
r122 24 31 0.160909
r123 24 25 1.56385
r124 20 31 0.160909
r125 18 30 0.212317
r126 18 19 1.31538
r127 14 19 0.212317
r128 14 15 3.21538
r129 12 20 2.23323
r130 8 10 4.7687
r131 8 27 89.3538
r132 5 10 120.12
r133 1 8 4.7687
r134 1 2 160.68
.ends

.subckt PM_KOGGESTONE%XI105/NET8 1 2 5 8 10 12 15 18 19 25 27 30 31 34
c114 34 0 0.00439618f
c115 31 0 6.59488e-19
c116 30 0 0.00618475f
c117 27 0 0.0151085f
c118 25 0 0.00615495f
c119 19 0 0.00482463f
c120 18 0 0.0084805f
c121 15 0 0.0284924f
c122 12 0 0.0261368f
c123 10 0 0.101707f
c124 8 0 0.00612618f
c125 1 0 0.137355f
r126 32 34 0.57
r127 29 34 0.0223169
r128 29 30 1.78308
r129 26 31 0.0418175
r130 26 27 2.39692
r131 25 32 0.0223169
r132 24 31 0.160909
r133 24 25 1.56385
r134 20 31 0.160909
r135 18 30 0.212317
r136 18 19 1.31538
r137 14 19 0.212317
r138 14 15 3.21538
r139 12 20 2.23323
r140 8 10 4.7687
r141 8 27 89.3538
r142 5 10 120.12
r143 1 8 4.7687
r144 1 2 160.68
.ends

.subckt PM_KOGGESTONE%XI93/NET8 1 2 5 8 10 12 15 18 19 25 27 30 34
c138 34 0 0.00424601f
c139 31 0 6.70844e-19
c140 30 0 0.00476385f
c141 27 0 0.0142664f
c142 25 0 0.00613603f
c143 19 0 0.00436624f
c144 18 0 0.00731248f
c145 15 0 0.0201774f
c146 12 0 0.027512f
c147 10 0 0.0987909f
c148 8 0 0.00628536f
c149 1 0 0.135399f
r150 32 34 0.57
r151 29 34 0.0223169
r152 29 30 1.78308
r153 26 31 0.0418175
r154 26 27 2.39692
r155 25 32 0.0223169
r156 24 31 0.160909
r157 24 25 1.56385
r158 20 31 0.160909
r159 18 30 0.212317
r160 18 19 1.31538
r161 14 19 0.212317
r162 14 15 3.21538
r163 12 20 2.23323
r164 8 10 4.7687
r165 8 27 89.3538
r166 5 10 120.12
r167 1 8 4.7687
r168 1 2 160.68
.ends

.subckt PM_KOGGESTONE%XI86/NET8 1 2 5 8 10 12 15 18 19 25 27 30 31 34
c138 34 0 0.00445291f
c139 31 0 9.8957e-19
c140 30 0 0.00499044f
c141 27 0 0.0137095f
c142 25 0 0.00667584f
c143 19 0 0.00354455f
c144 18 0 0.00649254f
c145 15 0 0.0209111f
c146 12 0 0.0299937f
c147 10 0 0.0965182f
c148 8 0 0.00595989f
c149 1 0 0.135364f
r150 32 34 0.57
r151 29 34 0.0223169
r152 29 30 1.78308
r153 26 31 0.0418175
r154 26 27 2.39692
r155 25 32 0.0223169
r156 24 31 0.160909
r157 24 25 1.56385
r158 20 31 0.160909
r159 18 30 0.212317
r160 18 19 1.31538
r161 14 19 0.212317
r162 14 15 3.21538
r163 12 20 2.23323
r164 8 10 4.7687
r165 8 27 89.3538
r166 5 10 120.12
r167 1 8 4.7687
r168 1 2 160.68
.ends

.subckt PM_KOGGESTONE%XI111/NET8 1 2 5 8 10 12 15 18 19 25 27 30 34
c119 34 0 0.0041648f
c120 31 0 6.70844e-19
c121 30 0 0.00550842f
c122 27 0 0.0142683f
c123 25 0 0.00604393f
c124 19 0 0.004439f
c125 18 0 0.00721063f
c126 15 0 0.0245325f
c127 12 0 0.0240868f
c128 10 0 0.103787f
c129 8 0 0.00603012f
c130 1 0 0.133501f
r131 32 34 0.57
r132 29 34 0.0223169
r133 29 30 1.78308
r134 26 31 0.0418175
r135 26 27 2.39692
r136 25 32 0.0223169
r137 24 31 0.160909
r138 24 25 1.56385
r139 20 31 0.160909
r140 18 30 0.212317
r141 18 19 1.31538
r142 14 19 0.212317
r143 14 15 3.21538
r144 12 20 2.23323
r145 8 10 4.7687
r146 8 27 89.3538
r147 5 10 120.12
r148 1 8 4.7687
r149 1 2 160.68
.ends

.subckt PM_KOGGESTONE%XI117/NET8 1 2 5 8 10 12 15 18 19 25 27 30 34
c107 34 0 0.00471505f
c108 31 0 6.70844e-19
c109 30 0 0.0058972f
c110 27 0 0.0155608f
c111 25 0 0.00741362f
c112 19 0 0.0045123f
c113 18 0 0.00836381f
c114 15 0 0.030334f
c115 12 0 0.0299092f
c116 10 0 0.10413f
c117 8 0 0.00605456f
c118 1 0 0.133631f
r119 32 34 0.57
r120 29 34 0.0223169
r121 29 30 1.78308
r122 26 31 0.0418175
r123 26 27 2.39692
r124 25 32 0.0223169
r125 24 31 0.160909
r126 24 25 1.56385
r127 20 31 0.160909
r128 18 30 0.212317
r129 18 19 1.31538
r130 14 19 0.212317
r131 14 15 3.21538
r132 12 20 2.23323
r133 8 10 4.7687
r134 8 27 89.3538
r135 5 10 120.12
r136 1 8 4.7687
r137 1 2 160.68
.ends

.subckt PM_KOGGESTONE%XI102/NET8 1 2 5 8 10 12 15 18 19 25 27 30 34
c113 34 0 0.00452921f
c114 31 0 6.70844e-19
c115 30 0 0.00540232f
c116 27 0 0.0155819f
c117 25 0 0.00718363f
c118 19 0 0.0038934f
c119 18 0 0.00840949f
c120 15 0 0.020673f
c121 12 0 0.0323927f
c122 10 0 0.0977189f
c123 8 0 0.00623326f
c124 1 0 0.137864f
r125 32 34 0.57
r126 29 34 0.0223169
r127 29 30 1.78308
r128 26 31 0.0418175
r129 26 27 2.39692
r130 25 32 0.0223169
r131 24 31 0.160909
r132 24 25 1.56385
r133 20 31 0.160909
r134 18 30 0.212317
r135 18 19 1.31538
r136 14 19 0.212317
r137 14 15 3.21538
r138 12 20 2.23323
r139 8 10 4.7687
r140 8 27 89.3538
r141 5 10 120.12
r142 1 8 4.7687
r143 1 2 160.68
.ends

.subckt PM_KOGGESTONE%XI108/NET8 1 2 5 8 10 12 15 18 19 25 27 30 34
c115 34 0 0.00452921f
c116 31 0 6.70844e-19
c117 30 0 0.00540232f
c118 27 0 0.0155819f
c119 25 0 0.00718363f
c120 19 0 0.0038934f
c121 18 0 0.00837304f
c122 15 0 0.0244113f
c123 12 0 0.0323927f
c124 10 0 0.0977189f
c125 8 0 0.00623326f
c126 1 0 0.137993f
r127 32 34 0.57
r128 29 34 0.0223169
r129 29 30 1.78308
r130 26 31 0.0418175
r131 26 27 2.39692
r132 25 32 0.0223169
r133 24 31 0.160909
r134 24 25 1.56385
r135 20 31 0.160909
r136 18 30 0.212317
r137 18 19 1.31538
r138 14 19 0.212317
r139 14 15 3.21538
r140 12 20 2.23323
r141 8 10 4.7687
r142 8 27 89.3538
r143 5 10 120.12
r144 1 8 4.7687
r145 1 2 160.68
.ends

.subckt PM_KOGGESTONE%XI101/NET8 1 2 5 8 10 12 15 18 19 25 27 30 31 34
c108 34 0 0.00463401f
c109 31 0 9.54133e-19
c110 30 0 0.00613962f
c111 27 0 0.0158018f
c112 25 0 0.00727904f
c113 19 0 0.00501006f
c114 18 0 0.00815873f
c115 15 0 0.0326928f
c116 12 0 0.0412681f
c117 10 0 0.10413f
c118 8 0 0.00605456f
c119 1 0 0.134933f
r120 32 34 0.57
r121 29 34 0.0223169
r122 29 30 1.78308
r123 26 31 0.0418175
r124 26 27 2.39692
r125 25 32 0.0223169
r126 24 31 0.160909
r127 24 25 1.56385
r128 20 31 0.160909
r129 18 30 0.212317
r130 18 19 1.31538
r131 14 19 0.212317
r132 14 15 3.21538
r133 12 20 2.23323
r134 8 10 4.7687
r135 8 27 89.3538
r136 5 10 120.12
r137 1 8 4.7687
r138 1 2 160.68
.ends

.subckt PM_KOGGESTONE%XI107/NET8 1 2 5 8 10 12 15 18 19 25 27 30 34
c105 34 0 0.00452921f
c106 31 0 0.00134024f
c107 30 0 0.00601462f
c108 27 0 0.0158018f
c109 25 0 0.00844016f
c110 19 0 0.00443841f
c111 18 0 0.0085406f
c112 15 0 0.032659f
c113 12 0 0.0416573f
c114 10 0 0.10413f
c115 8 0 0.00605456f
c116 1 0 0.135902f
r117 32 34 0.57
r118 29 34 0.0223169
r119 29 30 1.78308
r120 26 31 0.0418175
r121 26 27 2.39692
r122 25 32 0.0223169
r123 24 31 0.160909
r124 24 25 1.56385
r125 20 31 0.160909
r126 18 30 0.212317
r127 18 19 1.31538
r128 14 19 0.212317
r129 14 15 3.21538
r130 12 20 2.23323
r131 8 10 4.7687
r132 8 27 89.3538
r133 5 10 120.12
r134 1 8 4.7687
r135 1 2 160.68
.ends

.subckt PM_KOGGESTONE%XI114/NET8 1 2 5 8 10 12 15 18 19 25 27 30 34
c122 34 0 0.00417818f
c123 31 0 6.70844e-19
c124 30 0 0.00504381f
c125 27 0 0.0146252f
c126 25 0 0.00545748f
c127 19 0 0.00341871f
c128 18 0 0.00830807f
c129 15 0 0.0217831f
c130 12 0 0.0304237f
c131 10 0 0.0965322f
c132 8 0 0.00577402f
c133 1 0 0.128189f
r134 32 34 0.57
r135 29 34 0.0223169
r136 29 30 1.78308
r137 26 31 0.0418175
r138 26 27 2.39692
r139 25 32 0.0223169
r140 24 31 0.160909
r141 24 25 1.56385
r142 20 31 0.160909
r143 18 30 0.212317
r144 18 19 1.31538
r145 14 19 0.212317
r146 14 15 3.21538
r147 12 20 2.23323
r148 8 10 4.7687
r149 8 27 89.3538
r150 5 10 120.12
r151 1 8 4.7687
r152 1 2 160.68
.ends

.subckt PM_KOGGESTONE%XI120/NET8 1 2 5 8 10 12 15 18 19 25 27 30 34
c112 34 0 0.00434832f
c113 31 0 6.70844e-19
c114 30 0 0.00670737f
c115 27 0 0.014686f
c116 25 0 0.00538406f
c117 19 0 0.00337651f
c118 18 0 0.00747742f
c119 15 0 0.0180614f
c120 12 0 0.0277911f
c121 10 0 0.0959703f
c122 8 0 0.00580122f
c123 1 0 0.130446f
r124 32 34 0.57
r125 29 34 0.0223169
r126 29 30 1.78308
r127 26 31 0.0418175
r128 26 27 2.39692
r129 25 32 0.0223169
r130 24 31 0.160909
r131 24 25 1.56385
r132 20 31 0.160909
r133 18 30 0.212317
r134 18 19 1.31538
r135 14 19 0.212317
r136 14 15 3.21538
r137 12 20 2.23323
r138 8 10 4.7687
r139 8 27 89.3538
r140 5 10 120.12
r141 1 8 4.7687
r142 1 2 160.68
.ends

.subckt PM_KOGGESTONE%XI113/NET8 1 2 5 8 10 12 15 18 19 25 27 30 34
c103 34 0 0.00512275f
c104 31 0 0.00134024f
c105 30 0 0.00568277f
c106 27 0 0.0158018f
c107 25 0 0.00901671f
c108 19 0 0.00436624f
c109 18 0 0.00839505f
c110 15 0 0.032098f
c111 12 0 0.0416573f
c112 10 0 0.10413f
c113 8 0 0.00605456f
c114 1 0 0.138304f
r115 32 34 0.57
r116 29 34 0.0223169
r117 29 30 1.78308
r118 26 31 0.0418175
r119 26 27 2.39692
r120 25 32 0.0223169
r121 24 31 0.160909
r122 24 25 1.56385
r123 20 31 0.160909
r124 18 30 0.212317
r125 18 19 1.31538
r126 14 19 0.212317
r127 14 15 3.21538
r128 12 20 2.23323
r129 8 10 4.7687
r130 8 27 89.3538
r131 5 10 120.12
r132 1 8 4.7687
r133 1 2 160.68
.ends

.subckt PM_KOGGESTONE%XI119/NET8 1 2 5 8 10 12 15 18 19 25 27 30 34
c98 34 0 0.00479657f
c99 31 0 0.00134024f
c100 30 0 0.00601319f
c101 27 0 0.0155555f
c102 25 0 0.00793142f
c103 19 0 0.00361853f
c104 18 0 0.00823066f
c105 15 0 0.0308435f
c106 12 0 0.0371084f
c107 10 0 0.10413f
c108 8 0 0.00605456f
c109 1 0 0.139633f
r110 32 34 0.57
r111 29 34 0.0223169
r112 29 30 1.78308
r113 26 31 0.0418175
r114 26 27 2.39692
r115 25 32 0.0223169
r116 24 31 0.160909
r117 24 25 1.56385
r118 20 31 0.160909
r119 18 30 0.212317
r120 18 19 1.31538
r121 14 19 0.212317
r122 14 15 3.21538
r123 12 20 2.23323
r124 8 10 4.7687
r125 8 27 89.3538
r126 5 10 120.12
r127 1 8 4.7687
r128 1 2 160.68
.ends

.subckt PM_KOGGESTONE%XI5/NET9 6 13 21 23 25
c40 26 0 0.0023392f
c41 25 0 0.0142999f
c42 23 0 0.00703296f
c43 21 0 0.0220347f
c44 20 0 0.0042668f
c45 13 0 0.0297475f
c46 6 0 0.0142005f
r47 25 26 0.553316
r48 23 30 4.7687
r49 21 23 89.3538
r50 20 21 3.52231
r51 17 25 0.340516
r52 15 20 0.212317
r53 15 26 0.38
r54 13 30 35.88
r55 6 17 2.49923
.ends

.subckt PM_KOGGESTONE%XI4/NET9 6 13 20 21 23 25 26
c47 26 0 8.48372e-19
c48 25 0 0.0122058f
c49 23 0 0.00694894f
c50 21 0 0.014396f
c51 20 0 0.00178921f
c52 13 0 0.0297475f
c53 6 0 0.00814409f
r54 25 26 0.553316
r55 23 30 4.7687
r56 21 23 89.3538
r57 20 21 3.52231
r58 17 25 0.340516
r59 15 20 0.212317
r60 15 26 0.38
r61 13 30 35.88
r62 6 17 2.49923
.ends

.subckt PM_KOGGESTONE%XI3/NET9 6 13 20 21 23 25 26
c54 26 0 0.00106759f
c55 25 0 0.013209f
c56 23 0 0.00750405f
c57 21 0 0.0151664f
c58 20 0 0.00187744f
c59 13 0 0.0297475f
c60 6 0 0.0113629f
r61 25 26 0.553316
r62 23 30 4.7687
r63 21 23 89.3538
r64 20 21 3.52231
r65 17 25 0.340516
r66 15 20 0.212317
r67 15 26 0.38