* File: CALC.pex.netlist.pex
* Created: Mon Mar 11 17:19:49 2013
* Program "Calibre xRC"
* Version "v2011.4_35.27"
* Nominal Temperature: 27C
* Circuit Temperature: 27C
* 
.subckt PM_CALC%XINPUT1/XI23/NET7 7 10 15 20 32 36 37 41 45 46 47 50 55 57 63
c135 63 0 0.0077341f
c136 57 0 0.00630658f
c137 55 0 0.00291889f
c138 50 0 0.0217987f
c139 47 0 0.00188451f
c140 46 0 0.0139557f
c141 45 0 0.0176997f
c142 41 0 0.00487535f
c143 36 0 0.0431281f
c144 35 0 0.00182539f
c145 32 0 0.0935842f
c146 20 0 0.00929347f
c147 15 0 0.020237f
c148 10 0 0.00444392f
c149 7 0 0.072733f
r150 55 61 0.00703704
r151 53 55 102.4
r152 53 57 0.00892857
r153 50 63 102.4
r154 48 50 1.99107
r155 46 48 0.139682
r156 46 47 3.42857
r157 45 47 0.139682
r158 44 57 0.0146822
r159 44 45 2.22321
r160 43 63 0.584615
r161 39 63 1.19846
r162 38 41 0.57
r163 38 39 0.0223169
r164 36 41 0.0223169
r165 36 37 4.18
r166 35 43 0.212317
r167 20 35 1.31538
r168 20 22 0.212317
r169 15 22 3.21538
r170 12 32 136.5
r171 10 13 4.7687
r172 10 12 4.7687
r173 10 61 89.3538
r174 7 13 121.68
.ends

.subckt PM_CALC%XINPUT1/XI23/NET9 6 9 12 32 34 36 38 40 44 48 52 56 60 65 67 69
+ 73 75 77 79 89 100 101 102 105 108 111 112 113 115 123
c120 123 0 0.00702577f
c121 115 0 0.00432331f
c122 113 0 0.00145791f
c123 112 0 0.00662651f
c124 111 0 0.00329168f
c125 108 0 0.00298066f
c126 105 0 0.00931224f
c127 104 0 0.00209364f
c128 102 0 0.0162259f
c129 100 0 0.00323788f
c130 89 0 0.0103324f
c131 88 0 0.00209364f
c132 87 0 0.00209364f
c133 86 0 0.00209364f
c134 85 0 0.00209364f
c135 84 0 0.00209184f
c136 83 0 0.00209184f
c137 82 0 0.00209184f
c138 79 0 0.0141582f
c139 77 0 0.00841096f
c140 75 0 0.00829759f
c141 73 0 0.00866352f
c142 69 0 0.0111854f
c143 67 0 0.0178608f
c144 65 0 0.0114256f
c145 60 0 0.00318179f
c146 56 0 0.00329191f
c147 52 0 0.00340142f
c148 48 0 0.00810551f
c149 44 0 0.00344826f
c150 40 0 0.0032692f
c151 38 0 0.00294336f
c152 36 0 0.00291678f
c153 34 0 0.00288729f
c154 12 0 0.00508244f
c155 9 0 0.0789042f
c156 6 0 0.0946855f
r157 115 118 0.0535714
r158 115 123 102.4
r159 112 118 0.0146822
r160 112 113 0.875
r161 111 113 0.139682
r162 110 111 0.366071
r163 106 108 102.4
r164 105 110 0.139682
r165 105 106 0.857143
r166 103 123 0.599231
r167 103 104 0.160909
r168 102 104 0.160909
r169 100 104 0.0418175
r170 100 101 0.233846
r171 99 123 0.657692
r172 85 99 0.160909
r173 79 89 0.160909
r174 78 88 0.160909
r175 78 79 2.07538
r176 77 88 0.160909
r177 76 87 0.160909
r178 76 77 1.25692
r179 75 87 0.160909
r180 74 86 0.160909
r181 74 75 1.25692
r182 73 86 0.160909
r183 72 85 0.160909
r184 72 73 1.25692
r185 70 102 2.25077
r186 70 84 0.160909
r187 69 84 0.160909
r188 68 83 0.160909
r189 68 69 1.47615
r190 67 83 0.160909
r191 66 67 2.36769
r192 66 82 0.160909
r193 65 82 0.160909
r194 64 65 1.60769
r195 60 84 0.0418175
r196 56 83 0.0418175
r197 52 82 0.0418175
r198 48 64 0.212317
r199 44 89 0.0418175
r200 44 101 0.233846
r201 40 88 0.0418175
r202 40 101 0.233846
r203 38 87 0.0418175
r204 38 101 0.233846
r205 36 86 0.0418175
r206 36 101 0.233846
r207 34 85 0.0418175
r208 34 101 0.233846
r209 32 48 0.219231
r210 32 52 0.219231
r211 32 56 0.219231
r212 32 60 0.219231
r213 12 15 4.7687
r214 12 14 4.7687
r215 12 108 89.3538
r216 9 15 121.68
r217 6 14 136.5
.ends

.subckt PM_CALC%XINPUT1/XI23/NET4 6 9 12 17 22 32 36 38 40 41 44 46
c77 46 0 5.97363e-19
c78 44 0 0.00595248f
c79 40 0 0.0389643f
c80 39 0 0.00250961f
c81 38 0 0.00311159f
c82 36 0 0.00223649f
c83 32 0 0.00755955f
c84 22 0 0.00915145f
c85 17 0 0.0200178f
c86 12 0 0.00523229f
c87 9 0 0.0784423f
c88 6 0 0.0935842f
r89 42 44 0.57
r90 40 44 0.0223169
r91 40 41 4.18
r92 38 39 0.212317
r93 37 46 0.160909
r94 37 38 0.964615
r95 36 46 0.160909
r96 35 42 0.0223169
r97 35 36 0.438462
r98 32 46 0.0418175
r99 32 33 1.08154
r100 22 39 1.31538
r101 22 24 0.212317
r102 17 24 3.21538
r103 12 15 4.7687
r104 12 14 4.7687
r105 12 33 89.3538
r106 9 15 121.68
r107 6 14 136.5
.ends

.subckt PM_CALC%XINPUT1/XI24/NET7 7 10 15 20 32 36 37 41 45 46 47 50 55 57 63
c142 63 0 0.00792336f
c143 57 0 0.00326817f
c144 55 0 0.00309351f
c145 50 0 0.020984f
c146 47 0 0.00188451f
c147 46 0 0.0139557f
c148 45 0 0.0169468f
c149 41 0 0.00487535f
c150 36 0 0.0430189f
c151 35 0 0.00182539f
c152 32 0 0.092418f
c153 20 0 0.00929347f
c154 15 0 0.020237f
c155 10 0 0.0045019f
c156 7 0 0.0726849f
r157 55 61 0.00703704
r158 53 55 102.4
r159 53 57 0.00892857
r160 50 63 102.4
r161 48 50 1.99107
r162 46 48 0.139682
r163 46 47 3.42857
r164 45 47 0.139682
r165 44 57 0.0146822
r166 44 45 2.22321
r167 43 63 0.584615
r168 39 63 1.19846
r169 38 41 0.57
r170 38 39 0.0223169
r171 36 41 0.0223169
r172 36 37 4.18
r173 35 43 0.212317
r174 20 35 1.31538
r175 20 22 0.212317
r176 15 22 3.21538
r177 12 32 136.5
r178 10 13 4.7687
r179 10 12 4.7687
r180 10 61 89.3538
r181 7 13 121.68
.ends

.subckt PM_CALC%XINPUT1/XI24/NET9 6 9 12 32 34 36 38 40 44 48 52 56 60 65 67 69
+ 73 75 77 79 82 83 84 85 86 87 88 89 100 101 102 104 105 108 111 112 113 115
+ 123
c171 123 0 0.00551876f
c172 115 0 0.00421796f
c173 113 0 1.7187e-19
c174 112 0 7.41628e-19
c175 111 0 0.00255901f
c176 108 0 0.00302432f
c177 105 0 0.00484693f
c178 104 0 6.96744e-19
c179 102 0 0.0091303f
c180 100 0 0.00241269f
c181 89 0 0.00462839f
c182 88 0 0.00102786f
c183 87 0 0.00102786f
c184 86 0 0.00102786f
c185 85 0 8.2661e-19
c186 84 0 0.00105276f
c187 83 0 0.00105276f
c188 82 0 0.00105276f
c189 79 0 0.00680898f
c190 77 0 0.00390361f
c191 75 0 0.00400996f
c192 73 0 0.00439252f
c193 69 0 0.00710661f
c194 67 0 0.0105995f
c195 65 0 0.00585547f
c196 60 0 0.00318179f
c197 56 0 0.00329191f
c198 52 0 0.00340142f
c199 48 0 0.00645827f
c200 44 0 0.00290878f
c201 40 0 0.0034596f
c202 38 0 0.00338668f
c203 36 0 0.00335715f
c204 34 0 0.00332925f
c205 12 0 0.00492909f
c206 9 0 0.0786873f
c207 6 0 0.0927564f
r208 115 118 0.0535714
r209 115 123 102.4
r210 112 118 0.0146822
r211 112 113 0.875
r212 111 113 0.139682
r213 110 111 0.366071
r214 106 108 102.4
r215 105 110 0.139682
r216 105 106 0.857143
r217 103 123 0.599231
r218 103 104 0.160909
r219 102 104 0.160909
r220 100 104 0.0418175
r221 100 101 0.233846
r222 99 123 0.657692
r223 85 99 0.160909
r224 79 89 0.160909
r225 78 88 0.160909
r226 78 79 2.07538
r227 77 88 0.160909
r228 76 87 0.160909
r229 76 77 1.25692
r230 75 87 0.160909
r231 74 86 0.160909
r232 74 75 1.25692
r233 73 86 0.160909
r234 72 85 0.160909
r235 72 73 1.25692
r236 70 102 2.25077
r237 70 84 0.160909
r238 69 84 0.160909
r239 68 83 0.160909
r240 68 69 1.47615
r241 67 83 0.160909
r242 66 67 2.36769
r243 66 82 0.160909
r244 65 82 0.160909
r245 64 65 1.60769
r246 60 84 0.0418175
r247 56 83 0.0418175
r248 52 82 0.0418175
r249 48 64 0.212317
r250 44 89 0.0418175
r251 44 101 0.233846
r252 40 88 0.0418175
r253 40 101 0.233846
r254 38 87 0.0418175
r255 38 101 0.233846
r256 36 86 0.0418175
r257 36 101 0.233846
r258 34 85 0.0418175
r259 34 101 0.233846
r260 32 48 0.219231
r261 32 52 0.219231
r262 32 56 0.219231
r263 32 60 0.219231
r264 12 15 4.7687
r265 12 14 4.7687
r266 12 108 89.3538
r267 9 15 121.68
r268 6 14 136.5
.ends

.subckt PM_CALC%XINPUT1/XI24/NET4 6 9 12 17 22 32 36 38 40 41 44 46
c87 46 0 4.68526e-19
c88 44 0 0.00595248f
c89 40 0 0.0397063f
c90 39 0 0.00250961f
c91 38 0 0.00353051f
c92 36 0 0.00235209f
c93 32 0 0.004754f
c94 22 0 0.00914202f
c95 17 0 0.0200178f
c96 12 0 0.00476093f
c97 9 0 0.0781235f
c98 6 0 0.092418f
r99 42 44 0.57
r100 40 44 0.0223169
r101 40 41 4.18
r102 38 39 0.212317
r103 37 46 0.160909
r104 37 38 0.964615
r105 36 46 0.160909
r106 35 42 0.0223169
r107 35 36 0.438462
r108 32 46 0.0418175
r109 32 33 1.08154
r110 22 39 1.31538
r111 22 24 0.212317
r112 17 24 3.21538
r113 12 15 4.7687
r114 12 14 4.7687
r115 12 33 89.3538
r116 9 15 121.68
r117 6 14 136.5
.ends

.subckt PM_CALC%XINPUT1/XI25/NET7 7 10 15 20 32 36 37 41 45 46 47 50 55 57 63
c144 63 0 0.00792336f
c145 57 0 0.00326817f
c146 55 0 0.00309351f
c147 50 0 0.020984f
c148 47 0 0.00188451f
c149 46 0 0.0139557f
c150 45 0 0.0169468f
c151 41 0 0.00487535f
c152 36 0 0.0429096f
c153 35 0 0.00182539f
c154 32 0 0.0914687f
c155 20 0 0.00929268f
c156 15 0 0.020237f
c157 10 0 0.0045019f
c158 7 0 0.0726955f
r159 55 61 0.00703704
r160 53 55 102.4
r161 53 57 0.00892857
r162 50 63 102.4
r163 48 50 1.99107
r164 46 48 0.139682
r165 46 47 3.42857
r166 45 47 0.139682
r167 44 57 0.0146822
r168 44 45 2.22321
r169 43 63 0.584615
r170 39 63 1.19846
r171 38 41 0.57
r172 38 39 0.0223169
r173 36 41 0.0223169
r174 36 37 4.18
r175 35 43 0.212317
r176 20 35 1.31538
r177 20 22 0.212317
r178 15 22 3.21538
r179 12 32 136.5
r180 10 13 4.7687
r181 10 12 4.7687
r182 10 61 89.3538
r183 7 13 121.68
.ends

.subckt PM_CALC%XINPUT1/XI25/NET9 6 9 12 32 34 36 38 40 44 48 52 56 60 65 67 69
+ 73 75 77 79 82 83 84 85 86 87 88 89 100 101 102 104 105 108 111 112 113 115
+ 123
c176 123 0 0.00551876f
c177 115 0 0.00421796f
c178 113 0 1.7187e-19
c179 112 0 7.41628e-19
c180 111 0 0.00255901f
c181 108 0 0.00302432f
c182 105 0 0.00484693f
c183 104 0 6.96744e-19
c184 102 0 0.0091303f
c185 100 0 0.00241269f
c186 89 0 0.00424028f
c187 88 0 8.40602e-19
c188 87 0 8.40602e-19
c189 86 0 8.40602e-19
c190 85 0 8.2661e-19
c191 84 0 0.00105276f
c192 83 0 0.00105276f
c193 82 0 9.91004e-19
c194 79 0 0.00638719f
c195 77 0 0.00368267f
c196 75 0 0.00378902f
c197 73 0 0.0042566f
c198 69 0 0.00710661f
c199 67 0 0.00893926f
c200 65 0 0.00585547f
c201 60 0 0.00318179f
c202 56 0 0.00329191f
c203 52 0 0.00300444f
c204 48 0 0.00645827f
c205 44 0 0.00290878f
c206 40 0 0.0034596f
c207 38 0 0.00338668f
c208 36 0 0.00335715f
c209 34 0 0.00332925f
c210 12 0 0.00492909f
c211 9 0 0.0786873f
c212 6 0 0.0918071f
r213 115 118 0.0535714
r214 115 123 102.4
r215 112 118 0.0146822
r216 112 113 0.875
r217 111 113 0.139682
r218 110 111 0.366071
r219 106 108 102.4
r220 105 110 0.139682
r221 105 106 0.857143
r222 103 123 0.599231
r223 103 104 0.160909
r224 102 104 0.160909
r225 100 104 0.0418175
r226 100 101 0.233846
r227 99 123 0.657692
r228 85 99 0.160909
r229 79 89 0.160909
r230 78 88 0.160909
r231 78 79 2.07538
r232 77 88 0.160909
r233 76 87 0.160909
r234 76 77 1.25692
r235 75 87 0.160909
r236 74 86 0.160909
r237 74 75 1.25692
r238 73 86 0.160909
r239 72 85 0.160909
r240 72 73 1.25692
r241 70 102 2.25077
r242 70 84 0.160909
r243 69 84 0.160909
r244 68 83 0.160909
r245 68 69 1.47615
r246 67 83 0.160909
r247 66 67 2.36769
r248 66 82 0.160909
r249 65 82 0.160909
r250 64 65 1.60769
r251 60 84 0.0418175
r252 56 83 0.0418175
r253 52 82 0.0418175
r254 48 64 0.212317
r255 44 89 0.0418175
r256 44 101 0.233846
r257 40 88 0.0418175
r258 40 101 0.233846
r259 38 87 0.0418175
r260 38 101 0.233846
r261 36 86 0.0418175
r262 36 101 0.233846
r263 34 85 0.0418175
r264 34 101 0.233846
r265 32 48 0.219231
r266 32 52 0.219231
r267 32 56 0.219231
r268 32 60 0.219231
r269 12 15 4.7687
r270 12 14 4.7687
r271 12 108 89.3538
r272 9 15 121.68
r273 6 14 136.5
.ends

.subckt PM_CALC%XINPUT1/XI25/NET4 6 9 12 17 22 32 36 38 40 41 44 46
c89 46 0 4.68526e-19
c90 44 0 0.00595248f
c91 40 0 0.0404483f
c92 39 0 0.00250961f
c93 38 0 0.00353051f
c94 36 0 0.00235209f
c95 32 0 0.004754f
c96 22 0 0.00914202f
c97 17 0 0.0200178f
c98 12 0 0.00476093f
c99 9 0 0.0781235f
c100 6 0 0.0914687f
r101 42 44 0.57
r102 40 44 0.0223169
r103 40 41 4.18
r104 38 39 0.212317
r105 37 46 0.160909
r106 37 38 0.964615
r107 36 46 0.160909
r108 35 42 0.0223169
r109 35 36 0.438462
r110 32 46 0.0418175
r111 32 33 1.08154
r112 22 39 1.31538
r113 22 24 0.212317
r114 17 24 3.21538
r115 12 15 4.7687
r116 12 14 4.7687
r117 12 33 89.3538
r118 9 15 121.68
r119 6 14 136.5
.ends

.subckt PM_CALC%XINPUT1/XI26/NET7 7 10 15 20 32 36 37 41 45 46 47 50 55 57 63
c144 63 0 0.00792336f
c145 57 0 0.00326817f
c146 55 0 0.00309351f
c147 50 0 0.020984f
c148 47 0 0.00188451f
c149 46 0 0.0139557f
c150 45 0 0.0169468f
c151 41 0 0.00487535f
c152 36 0 0.0422545f
c153 35 0 0.00182539f
c154 32 0 0.0914687f
c155 20 0 0.00923416f
c156 15 0 0.020237f
c157 10 0 0.0045019f
c158 7 0 0.072766f
r159 55 61 0.00703704
r160 53 55 102.4
r161 53 57 0.00892857
r162 50 63 102.4
r163 48 50 1.99107
r164 46 48 0.139682
r165 46 47 3.42857
r166 45 47 0.139682
r167 44 57 0.0146822
r168 44 45 2.22321
r169 43 63 0.584615
r170 39 63 1.19846
r171 38 41 0.57
r172 38 39 0.0223169
r173 36 41 0.0223169
r174 36 37 4.18
r175 35 43 0.212317
r176 20 35 1.31538
r177 20 22 0.212317
r178 15 22 3.21538
r179 12 32 136.5
r180 10 13 4.7687
r181 10 12 4.7687
r182 10 61 89.3538
r183 7 13 121.68
.ends

.subckt PM_CALC%XINPUT1/XI26/NET9 6 9 12 32 34 36 38 40 44 48 52 56 60 65 67 69
+ 73 75 77 79 82 83 84 85 86 87 88 89 100 101 102 104 105 108 111 112 113 115
+ 123
c179 123 0 0.00551876f
c180 115 0 0.00421796f
c181 113 0 1.7187e-19
c182 112 0 7.41628e-19
c183 111 0 0.00255901f
c184 108 0 0.00302432f
c185 105 0 0.00486464f
c186 104 0 6.96744e-19
c187 102 0 0.0091303f
c188 100 0 0.00241269f
c189 89 0 0.00462839f
c190 88 0 0.00102786f
c191 87 0 0.00102786f
c192 86 0 0.00102786f
c193 85 0 8.2661e-19
c194 84 0 0.00105276f
c195 83 0 9.91004e-19
c196 82 0 9.91004e-19
c197 79 0 0.00680898f
c198 77 0 0.00390361f
c199 75 0 0.00400996f
c200 73 0 0.00439252f
c201 69 0 0.00638086f
c202 67 0 0.00794868f
c203 65 0 0.00585547f
c204 60 0 0.00335893f
c205 56 0 0.00304207f
c206 52 0 0.00315158f
c207 48 0 0.00645827f
c208 44 0 0.00290878f
c209 40 0 0.0034596f
c210 38 0 0.00338668f
c211 36 0 0.00335715f
c212 34 0 0.00332925f
c213 12 0 0.00492909f
c214 9 0 0.0787121f
c215 6 0 0.0908578f
r216 115 118 0.0535714
r217 115 123 102.4
r218 112 118 0.0146822
r219 112 113 0.875
r220 111 113 0.139682
r221 110 111 0.366071
r222 106 108 102.4
r223 105 110 0.139682
r224 105 106 0.857143
r225 103 123 0.599231
r226 103 104 0.160909
r227 102 104 0.160909
r228 100 104 0.0418175
r229 100 101 0.233846
r230 99 123 0.657692
r231 85 99 0.160909
r232 79 89 0.160909
r233 78 88 0.160909
r234 78 79 2.07538
r235 77 88 0.160909
r236 76 87 0.160909
r237 76 77 1.25692
r238 75 87 0.160909
r239 74 86 0.160909
r240 74 75 1.25692
r241 73 86 0.160909
r242 72 85 0.160909
r243 72 73 1.25692
r244 70 102 2.25077
r245 70 84 0.160909
r246 69 84 0.160909
r247 68 83 0.160909
r248 68 69 1.47615
r249 67 83 0.160909
r250 66 67 2.36769
r251 66 82 0.160909
r252 65 82 0.160909
r253 64 65 1.60769
r254 60 84 0.0418175
r255 56 83 0.0418175
r256 52 82 0.0418175
r257 48 64 0.212317
r258 44 89 0.0418175
r259 44 101 0.233846
r260 40 88 0.0418175
r261 40 101 0.233846
r262 38 87 0.0418175
r263 38 101 0.233846
r264 36 86 0.0418175
r265 36 101 0.233846
r266 34 85 0.0418175
r267 34 101 0.233846
r268 32 48 0.219231
r269 32 52 0.219231
r270 32 56 0.219231
r271 32 60 0.219231
r272 12 15 4.7687
r273 12 14 4.7687
r274 12 108 89.3538
r275 9 15 121.68
r276 6 14 136.5
.ends

.subckt PM_CALC%XINPUT1/XI26/NET4 6 9 12 17 22 32 36 38 40 41 44 46
c89 46 0 4.68526e-19
c90 44 0 0.00595248f
c91 40 0 0.0415355f
c92 39 0 0.00250961f
c93 38 0 0.00353051f
c94 36 0 0.00235209f
c95 32 0 0.004754f
c96 22 0 0.00914202f
c97 17 0 0.0200178f
c98 12 0 0.00472091f
c99 9 0 0.0782046f
c100 6 0 0.0914687f
r101 42 44 0.57
r102 40 44 0.0223169
r103 40 41 4.18
r104 38 39 0.212317
r105 37 46 0.160909
r106 37 38 0.964615
r107 36 46 0.160909
r108 35 42 0.0223169
r109 35 36 0.438462
r110 32 46 0.0418175
r111 32 33 1.08154
r112 22 39 1.31538
r113 22 24 0.212317
r114 17 24 3.21538
r115 12 15 4.7687
r116 12 14 4.7687
r117 12 33 89.3538
r118 9 15 121.68
r119 6 14 136.5
.ends

.subckt PM_CALC%XADDER1/XI1/XI1/NET7 7 10 15 20 32 36 37 41 45 46 47 50 55 57 63
c128 63 0 0.00711101f
c129 57 0 0.00375474f
c130 55 0 0.00291889f
c131 50 0 0.0206218f
c132 47 0 0.00204258f
c133 46 0 0.016846f
c134 45 0 0.023047f
c135 41 0 0.00400643f
c136 36 0 0.0409378f
c137 35 0 0.00182539f
c138 32 0 0.0922305f
c139 20 0 0.00734453f
c140 15 0 0.0244675f
c141 10 0 0.00443657f
c142 7 0 0.0752001f
r143 55 61 0.00703704
r144 53 55 102.4
r145 53 57 0.00892857
r146 50 63 102.4
r147 48 50 1.99107
r148 46 48 0.139682
r149 46 47 3.42857
r150 45 47 0.139682
r151 44 57 0.0146822
r152 44 45 2.22321
r153 43 63 0.584615
r154 39 63 1.19846
r155 38 41 0.57
r156 38 39 0.0223169
r157 36 41 0.0223169
r158 36 37 4.18
r159 35 43 0.212317
r160 20 35 1.31538
r161 20 22 0.212317
r162 15 22 3.21538
r163 12 32 136.5
r164 10 13 4.7687
r165 10 12 4.7687
r166 10 61 89.3538
r167 7 13 121.68
.ends

.subckt PM_CALC%XADDER1/XI1/XI1/NET9 6 9 12 32 34 36 38 40 44 48 52 56 60 65 67
+ 69 73 75 77 79 82 83 85 87 88 89 100 101 102 105 108 111 112 113 115 123
c165 123 0 0.00497721f
c166 115 0 0.00202124f
c167 113 0 1.61524e-19
c168 112 0 0.00279119f
c169 111 0 0.00329168f
c170 108 0 0.00297002f
c171 105 0 0.00613933f
c172 104 0 6.12158e-19
c173 102 0 0.00787609f
c174 100 0 0.00323788f
c175 89 0 0.00759408f
c176 88 0 0.001218f
c177 87 0 0.00111041f
c178 86 0 6.12158e-19
c179 85 0 4.50913e-19
c180 84 0 7.74614e-19
c181 83 0 0.0012559f
c182 82 0 7.12197e-19
c183 79 0 0.0113669f
c184 77 0 0.0065177f
c185 75 0 0.00472708f
c186 73 0 0.00535857f
c187 69 0 0.00606773f
c188 67 0 0.0102432f
c189 65 0 0.0069613f
c190 60 0 0.00267498f
c191 56 0 0.00278239f
c192 52 0 0.00340142f
c193 48 0 0.00546005f
c194 44 0 0.00343145f
c195 40 0 0.00325239f
c196 38 0 0.00242418f
c197 36 0 0.00289838f
c198 34 0 0.00324956f
c199 12 0 0.00527276f
c200 9 0 0.0828403f
c201 6 0 0.0920123f
r202 115 118 0.0535714
r203 115 123 102.4
r204 112 118 0.0146822
r205 112 113 0.875
r206 111 113 0.139682
r207 110 111 0.366071
r208 106 108 102.4
r209 105 110 0.139682
r210 105 106 0.857143
r211 103 123 0.599231
r212 103 104 0.160909
r213 102 104 0.160909
r214 100 104 0.0418175
r215 100 101 0.233846
r216 99 123 0.657692
r217 85 99 0.160909
r218 79 89 0.160909
r219 78 88 0.160909
r220 78 79 2.07538
r221 77 88 0.160909
r222 76 87 0.160909
r223 76 77 1.25692
r224 75 87 0.160909
r225 74 86 0.160909
r226 74 75 1.25692
r227 73 86 0.160909
r228 72 85 0.160909
r229 72 73 1.25692
r230 70 102 2.25077
r231 70 84 0.160909
r232 69 84 0.160909
r233 68 83 0.160909
r234 68 69 1.47615
r235 67 83 0.160909
r236 66 67 2.36769
r237 66 82 0.160909
r238 65 82 0.160909
r239 64 65 1.60769
r240 60 84 0.0418175
r241 56 83 0.0418175
r242 52 82 0.0418175
r243 48 64 0.212317
r244 44 89 0.0418175
r245 44 101 0.233846
r246 40 88 0.0418175
r247 40 101 0.233846
r248 38 87 0.0418175
r249 38 101 0.233846
r250 36 86 0.0418175
r251 36 101 0.233846
r252 34 85 0.0418175
r253 34 101 0.233846
r254 32 48 0.219231
r255 32 52 0.219231
r256 32 56 0.219231
r257 32 60 0.219231
r258 12 15 4.7687
r259 12 14 4.7687
r260 12 108 89.3538
r261 9 15 121.68
r262 6 14 136.5
.ends

.subckt PM_CALC%XADDER1/XI1/XI1/NET4 6 9 12 17 22 32 36 38 39 40 41 44 46
c86 46 0 4.41079e-19
c87 44 0 0.00567946f
c88 40 0 0.0337798f
c89 39 0 0.00250961f
c90 38 0 0.00344972f
c91 36 0 0.00205285f
c92 32 0 0.00573457f
c93 22 0 0.00909489f
c94 17 0 0.0258951f
c95 12 0 0.00516936f
c96 9 0 0.0822872f
c97 6 0 0.0922305f
r98 42 44 0.57
r99 40 44 0.0223169
r100 40 41 4.18
r101 38 39 0.212317
r102 37 46 0.160909
r103 37 38 0.964615
r104 36 46 0.160909
r105 35 42 0.0223169
r106 35 36 0.438462
r107 32 46 0.0418175
r108 32 33 1.08154
r109 22 39 1.31538
r110 22 24 0.212317
r111 17 24 3.21538
r112 12 15 4.7687
r113 12 14 4.7687
r114 12 33 89.3538
r115 9 15 121.68
r116 6 14 136.5
.ends

.subckt PM_CALC%XADDER1/XI2/XI1/NET7 7 10 15 20 32 36 37 41 45 46 47 50 55 57 63
c142 63 0 0.00692007f
c143 57 0 0.0040178f
c144 55 0 0.00303885f
c145 50 0 0.0156025f
c146 47 0 4.683e-19
c147 46 0 0.0102644f
c148 45 0 0.0152473f
c149 41 0 0.00406519f
c150 36 0 0.0365077f
c151 35 0 0.00196815f
c152 32 0 0.090899f
c153 20 0 0.00873009f
c154 15 0 0.0252475f
c155 10 0 0.0045487f
c156 7 0 0.0736061f
r157 55 61 0.00703704
r158 53 55 102.4
r159 53 57 0.00892857
r160 50 63 102.4
r161 48 50 1.99107
r162 46 48 0.139682
r163 46 47 3.42857
r164 45 47 0.139682
r165 44 57 0.0146822
r166 44 45 2.22321
r167 43 63 0.584615
r168 39 63 1.19846
r169 38 41 0.57
r170 38 39 0.0223169
r171 36 41 0.0223169
r172 36 37 4.18
r173 35 43 0.212317
r174 20 35 1.31538
r175 20 22 0.212317
r176 15 22 3.21538
r177 12 32 136.5
r178 10 13 4.7687
r179 10 12 4.7687
r180 10 61 89.3538
r181 7 13 121.68
.ends

.subckt PM_CALC%XADDER1/XI2/XI1/NET9 6 9 12 32 34 36 38 40 44 48 52 56 60 65 67
+ 69 73 75 77 79 83 84 87 88 89 100 101 102 104 105 108 111 112 113 115 123
c170 123 0 0.00507484f
c171 115 0 0.00324411f
c172 113 0 4.50397e-19
c173 112 0 0.00371852f
c174 111 0 0.00177433f
c175 108 0 0.0029566f
c176 105 0 0.00757304f
c177 104 0 6.69518e-19
c178 102 0 0.00700878f
c179 100 0 0.00323788f
c180 89 0 0.00729936f
c181 88 0 7.26029e-19
c182 87 0 0.00102052f
c183 86 0 8.37363e-19
c184 85 0 9.54245e-19
c185 84 0 9.36869e-19
c186 83 0 8.24058e-19
c187 82 0 8.39203e-19
c188 79 0 0.0106584f
c189 77 0 0.00492244f
c190 75 0 0.00412982f
c191 73 0 0.00515135f
c192 69 0 0.00519279f
c193 67 0 0.00793636f
c194 65 0 0.00559023f
c195 60 0 0.00313831f
c196 56 0 0.00267617f
c197 52 0 0.00340142f
c198 48 0 0.00523689f
c199 44 0 0.00343145f
c200 40 0 0.00273906f
c201 38 0 0.00241947f
c202 36 0 0.00289345f
c203 34 0 0.00287048f
c204 12 0 0.00483867f
c205 9 0 0.0790331f
c206 6 0 0.0852222f
r207 115 118 0.0535714
r208 115 123 102.4
r209 112 118 0.0146822
r210 112 113 0.875
r211 111 113 0.139682
r212 110 111 0.366071
r213 106 108 102.4
r214 105 110 0.139682
r215 105 106 0.857143
r216 103 123 0.599231
r217 103 104 0.160909
r218 102 104 0.160909
r219 100 104 0.0418175
r220 100 101 0.233846
r221 99 123 0.657692
r222 85 99 0.160909
r223 79 89 0.160909
r224 78 88 0.160909
r225 78 79 2.07538
r226 77 88 0.160909
r227 76 87 0.160909
r228 76 77 1.25692
r229 75 87 0.160909
r230 74 86 0.160909
r231 74 75 1.25692
r232 73 86 0.160909
r233 72 85 0.160909
r234 72 73 1.25692
r235 70 102 2.25077
r236 70 84 0.160909
r237 69 84 0.160909
r238 68 83 0.160909
r239 68 69 1.47615
r240 67 83 0.160909
r241 66 67 2.36769
r242 66 82 0.160909
r243 65 82 0.160909
r244 64 65 1.60769
r245 60 84 0.0418175
r246 56 83 0.0418175
r247 52 82 0.0418175
r248 48 64 0.212317
r249 44 89 0.0418175
r250 44 101 0.233846
r251 40 88 0.0418175
r252 40 101 0.233846
r253 38 87 0.0418175
r254 38 101 0.233846
r255 36 86 0.0418175
r256 36 101 0.233846
r257 34 85 0.0418175
r258 34 101 0.233846
r259 32 48 0.219231
r260 32 52 0.219231
r261 32 56 0.219231
r262 32 60 0.219231
r263 12 15 4.7687
r264 12 14 4.7687
r265 12 108 89.3538
r266 9 15 121.68
r267 6 14 136.5
.ends

.subckt PM_CALC%XADDER1/XI2/XI1/NET4 6 9 12 17 22 32 36 38 39 40 41 44 46
c85 46 0 5.42312e-19
c86 44 0 0.00571666f
c87 40 0 0.0387444f
c88 39 0 0.00250961f
c89 38 0 0.00312715f
c90 36 0 0.00151058f
c91 32 0 0.00755955f
c92 22 0 0.00935708f
c93 17 0 0.0243445f
c94 12 0 0.00504271f
c95 9 0 0.0809649f
c96 6 0 0.0913024f
r97 42 44 0.57
r98 40 44 0.0223169
r99 40 41 4.18
r100 38 39 0.212317
r101 37 46 0.160909
r102 37 38 0.964615
r103 36 46 0.160909
r104 35 42 0.0223169
r105 35 36 0.438462
r106 32 46 0.0418175
r107 32 33 1.08154
r108 22 39 1.31538
r109 22 24 0.212317
r110 17 24 3.21538
r111 12 15 4.7687
r112 12 14 4.7687
r113 12 33 89.3538
r114 9 15 121.68
r115 6 14 136.5
.ends

.subckt PM_CALC%XOUTPUT1/XI0/NET7 7 10 15 20 32 36 37 41 45 46 47 50 55 57 63
c145 63 0 0.00747934f
c146 57 0 0.0054166f
c147 55 0 0.00291889f
c148 50 0 0.00673083f
c149 47 0 0.0015602f
c150 46 0 0.0123727f
c151 45 0 0.0179031f
c152 41 0 0.00490228f
c153 36 0 0.0476974f
c154 35 0 0.00182539f
c155 32 0 0.0919019f
c156 20 0 0.00812544f
c157 15 0 0.018163f
c158 10 0 0.00448529f
c159 7 0 0.0723656f
r160 55 61 0.00703704
r161 53 55 102.4
r162 53 57 0.00892857
r163 50 63 102.4
r164 48 50 1.99107
r165 46 48 0.139682
r166 46 47 3.42857
r167 45 47 0.139682
r168 44 57 0.0146822
r169 44 45 2.22321
r170 43 63 0.584615
r171 39 63 1.19846
r172 38 41 0.57
r173 38 39 0.0223169
r174 36 41 0.0223169
r175 36 37 4.18
r176 35 43 0.212317
r177 20 35 1.31538
r178 20 22 0.212317
r179 15 22 3.21538
r180 12 32 136.5
r181 10 13 4.7687
r182 10 12 4.7687
r183 10 61 89.3538
r184 7 13 121.68
.ends

.subckt PM_CALC%XOUTPUT1/XI0/NET9 6 9 12 32 34 36 38 40 44 48 52 56 60 65 67 69
+ 73 75 77 79 83 84 85 86 87 88 89 100 101 102 104 105 108 111 112 113 115 123
c171 123 0 0.00505122f
c172 115 0 0.00213198f
c173 113 0 1.7187e-19
c174 112 0 0.0028218f
c175 111 0 0.00180919f
c176 108 0 0.00296931f
c177 105 0 0.00909162f
c178 104 0 6.4646e-19
c179 102 0 0.0111698f
c180 100 0 0.00323788f
c181 89 0 0.00437021f
c182 88 0 9.27348e-19
c183 87 0 9.27348e-19
c184 86 0 7.18413e-19
c185 85 0 8.14052e-19
c186 84 0 0.00109295f
c187 83 0 0.00108823f
c188 82 0 0.00109768f
c189 79 0 0.00667277f
c190 77 0 0.00397521f
c191 75 0 0.00420683f
c192 73 0 0.00436431f
c193 69 0 0.00713025f
c194 67 0 0.0121953f
c195 65 0 0.00729544f
c196 60 0 0.00302255f
c197 56 0 0.00324057f
c198 52 0 0.00340142f
c199 48 0 0.00551422f
c200 44 0 0.00302759f
c201 40 0 0.0034596f
c202 38 0 0.00338668f
c203 36 0 0.00335715f
c204 34 0 0.00332925f
c205 12 0 0.00507112f
c206 9 0 0.0789042f
c207 6 0 0.0912474f
r208 115 118 0.0535714
r209 115 123 102.4
r210 112 118 0.0146822
r211 112 113 0.875
r212 111 113 0.139682
r213 110 111 0.366071
r214 106 108 102.4
r215 105 110 0.139682
r216 105 106 0.857143
r217 103 123 0.599231
r218 103 104 0.160909
r219 102 104 0.160909
r220 100 104 0.0418175
r221 100 101 0.233846
r222 99 123 0.657692
r223 85 99 0.160909
r224 79 89 0.160909
r225 78 88 0.160909
r226 78 79 2.07538
r227 77 88 0.160909
r228 76 87 0.160909
r229 76 77 1.25692
r230 75 87 0.160909
r231 74 86 0.160909
r232 74 75 1.25692
r233 73 86 0.160909
r234 72 85 0.160909
r235 72 73 1.25692
r236 70 102 2.25077
r237 70 84 0.160909
r238 69 84 0.160909
r239 68 83 0.160909
r240 68 69 1.47615
r241 67 83 0.160909
r242 66 67 2.36769
r243 66 82 0.160909
r244 65 82 0.160909
r245 64 65 1.60769
r246 60 84 0.0418175
r247 56 83 0.0418175
r248 52 82 0.0418175
r249 48 64 0.212317
r250 44 89 0.0418175
r251 44 101 0.233846
r252 40 88 0.0418175
r253 40 101 0.233846
r254 38 87 0.0418175
r255 38 101 0.233846
r256 36 86 0.0418175
r257 36 101 0.233846
r258 34 85 0.0418175
r259 34 101 0.233846
r260 32 48 0.219231
r261 32 52 0.219231
r262 32 56 0.219231
r263 32 60 0.219231
r264 12 15 4.7687
r265 12 14 4.7687
r266 12 108 89.3538
r267 9 15 121.68
r268 6 14 136.5
.ends

.subckt PM_CALC%XOUTPUT1/XI0/NET4 6 9 12 17 22 32 36 38 39 40 41 44 46
c100 46 0 5.49437e-19
c101 44 0 0.00603533f
c102 40 0 0.0468909f
c103 39 0 0.00240066f
c104 38 0 0.00312429f
c105 36 0 0.00215658f
c106 32 0 0.00755955f
c107 22 0 0.00865228f
c108 17 0 0.0167863f
c109 12 0 0.0050527f
c110 9 0 0.0777583f
c111 6 0 0.0919019f
r112 42 44 0.57
r113 40 44 0.0223169
r114 40 41 4.18
r115 38 39 0.212317
r116 37 46 0.160909
r117 37 38 0.964615
r118 36 46 0.160909
r119 35 42 0.0223169
r120 35 36 0.438462
r121 32 46 0.0418175
r122 32 33 1.08154
r123 22 39 1.31538
r124 22 24 0.212317
r125 17 24 3.21538
r126 12 15 4.7687
r127 12 14 4.7687
r128 12 33 89.3538
r129 9 15 121.68
r130 6 14 136.5
.ends

.subckt PM_CALC%XADDER1/XI3/XI3/NET7 7 10 15 20 32 36 37 41 45 46 47 50 55 57 63
c123 63 0 0.0070403f
c124 57 0 0.0037597f
c125 55 0 0.00306275f
c126 50 0 0.0163178f
c127 47 0 3.74268e-19
c128 46 0 0.00631151f
c129 45 0 0.013028f
c130 41 0 0.00431036f
c131 36 0 0.0417784f
c132 35 0 0.00195047f
c133 32 0 0.0936914f
c134 20 0 0.0088251f
c135 15 0 0.018733f
c136 10 0 0.0045857f
c137 7 0 0.0735382f
r138 55 61 0.00703704
r139 53 55 102.4
r140 53 57 0.00892857
r141 50 63 102.4
r142 48 50 1.99107
r143 46 48 0.139682
r144 46 47 3.42857
r145 45 47 0.139682
r146 44 57 0.0146822
r147 44 45 2.22321
r148 43 63 0.584615
r149 39 63 1.19846
r150 38 41 0.57
r151 38 39 0.0223169
r152 36 41 0.0223169
r153 36 37 4.18
r154 35 43 0.212317
r155 20 35 1.31538
r156 20 22 0.212317
r157 15 22 3.21538
r158 12 32 136.5
r159 10 13 4.7687
r160 10 12 4.7687
r161 10 61 89.3538
r162 7 13 121.68
.ends

.subckt PM_CALC%XADDER1/XI3/XI3/NET9 6 9 12 32 34 36 38 40 44 48 52 56 60 65 67
+ 69 73 75 77 79 82 83 84 85 86 87 88 89 100 101 102 104 105 108 111 112 113 115
+ 123
c156 123 0 0.00499279f
c157 115 0 0.00127334f
c158 113 0 1.9562e-19
c159 112 0 0.00289206f
c160 111 0 0.00329168f
c161 108 0 0.00295999f
c162 105 0 0.00915002f
c163 104 0 7.24186e-19
c164 102 0 0.0080416f
c165 100 0 0.00323788f
c166 89 0 0.00682017f
c167 88 0 7.20411e-19
c168 87 0 8.35245e-19
c169 86 0 8.35245e-19
c170 85 0 7.24186e-19
c171 84 0 8.57841e-19
c172 83 0 8.34969e-19
c173 82 0 8.34969e-19
c174 79 0 0.00825606f
c175 77 0 0.00366466f
c176 75 0 0.00390237f
c177 73 0 0.00373906f
c178 69 0 0.004987f
c179 67 0 0.00811923f
c180 65 0 0.00550993f
c181 60 0 0.00309987f
c182 56 0 0.00328756f
c183 52 0 0.00340142f
c184 48 0 0.00560121f
c185 44 0 0.00343145f
c186 40 0 0.00273906f
c187 38 0 0.00292791f
c188 36 0 0.00289838f
c189 34 0 0.00287048f
c190 12 0 0.00507434f
c191 9 0 0.0817616f
c192 6 0 0.0933719f
r193 115 118 0.0535714
r194 115 123 102.4
r195 112 118 0.0146822
r196 112 113 0.875
r197 111 113 0.139682
r198 110 111 0.366071
r199 106 108 102.4
r200 105 110 0.139682
r201 105 106 0.857143
r202 103 123 0.599231
r203 103 104 0.160909
r204 102 104 0.160909
r205 100 104 0.0418175
r206 100 101 0.233846
r207 99 123 0.657692
r208 85 99 0.160909
r209 79 89 0.160909
r210 78 88 0.160909
r211 78 79 2.07538
r212 77 88 0.160909
r213 76 87 0.160909
r214 76 77 1.25692
r215 75 87 0.160909
r216 74 86 0.160909
r217 74 75 1.25692
r218 73 86 0.160909
r219 72 85 0.160909
r220 72 73 1.25692
r221 70 102 2.25077
r222 70 84 0.160909
r223 69 84 0.160909
r224 68 83 0.160909
r225 68 69 1.47615
r226 67 83 0.160909
r227 66 67 2.36769
r228 66 82 0.160909
r229 65 82 0.160909
r230 64 65 1.60769
r231 60 84 0.0418175
r232 56 83 0.0418175
r233 52 82 0.0418175
r234 48 64 0.212317
r235 44 89 0.0418175
r236 44 101 0.233846
r237 40 88 0.0418175
r238 40 101 0.233846
r239 38 87 0.0418175
r240 38 101 0.233846
r241 36 86 0.0418175
r242 36 101 0.233846
r243 34 85 0.0418175
r244 34 101 0.233846
r245 32 48 0.219231
r246 32 52 0.219231
r247 32 56 0.219231
r248 32 60 0.219231
r249 12 15 4.7687
r250 12 14 4.7687
r251 12 108 89.3538
r252 9 15 121.68
r253 6 14 136.5
.ends

.subckt PM_CALC%XADDER1/XI3/XI3/NET4 6 9 12 17 22 32 36 38 39 40 41 44 46
c88 46 0 5.49437e-19
c89 44 0 0.00559182f
c90 40 0 0.0377385f
c91 39 0 0.0014083f
c92 38 0 0.00282841f
c93 36 0 0.00158368f
c94 32 0 0.00755955f
c95 22 0 0.00753871f
c96 17 0 0.0219566f