* File: CALC.pex.netlist
* Created: Mon Mar 11 17:19:49 2013
* Program "Calibre xRC"
* Version "v2011.4_35.27"
* 
.include "CALC.pex.netlist.pex"
.subckt CALC  VDD! GND! I0 I1 I2 I3 B00 B10 B20 B30 S00 S10 O0 O1 O2 O3 S2 CLK
* 
* CLK	CLK
* S2	S2
* O3	O3
* O2	O2
* O1	O1
* O0	O0
* S10	S10
* S00	S00
* B30	B30
* B20	B20
* B10	B10
* B00	B00
* I3	I3
* I2	I2
* I1	I1
* I0	I0
* GND!	GND!
* VDD!	VDD!
mXADDER1/XI3/XI6/MM0 N_XADDER1/XI3/NET20_XADDER1/XI3/XI6/MM0_d
+ N_XADDER1/XI3/NET29_XADDER1/XI3/XI6/MM0_g N_GND!_XADDER1/XI3/XI6/MM0_s
+ N_GND!_XADDER1/XI3/XI6/MM0_b NMOS_VTG L=5e-08 W=1.44e-06 AD=1.161e-13
+ AS=1.0845e-13 PD=3.36e-06 PS=3.19e-06
mXADDER1/XI3/XI6/MM1 N_XADDER1/XI3/NET20_XADDER1/XI3/XI6/MM1_d
+ N_XADDER1/XI3/NET29_XADDER1/XI3/XI6/MM1_g N_VDD!_XADDER1/XI3/XI6/MM1_s
+ N_VDD!_XADDER1/XI3/XI6/MM1_b PMOS_VTG L=5e-08 W=1.96e-06 AD=1.6015e-13
+ AS=1.57e-13 PD=4.57e-06 PS=4.5e-06
mXINPUT1/XI23/XI7/MM1 N_XINPUT1/NET81_XINPUT1/XI23/XI7/MM1_d
+ N_XINPUT1/XI23/NET7_XINPUT1/XI23/XI7/MM1_g XINPUT1/XI23/XI7/NET17
+ N_GND!_XINPUT1/XI23/XI7/MM1_b NMOS_VTG L=5e-08 W=1.63e-06 AD=1.834e-13
+ AS=2.282e-13 PD=3.49e-06 PS=3.54e-06
mXINPUT1/XI23/XI7/MM3 XINPUT1/XI23/XI7/NET17
+ N_XINPUT1/XI23/NET4_XINPUT1/XI23/XI7/MM3_g N_GND!_XINPUT1/XI23/XI7/MM3_s
+ N_GND!_XINPUT1/XI23/XI7/MM1_b NMOS_VTG L=5e-08 W=1.63e-06 AD=2.282e-13
+ AS=1.77425e-13 PD=3.54e-06 PS=3.485e-06
mXINPUT1/XI23/XI7/MM0 N_XINPUT1/NET81_XINPUT1/XI23/XI7/MM0_d
+ N_XINPUT1/XI23/NET7_XINPUT1/XI23/XI7/MM0_g N_VDD!_XINPUT1/XI23/XI7/MM0_s
+ N_VDD!_XINPUT1/XI23/XI7/MM0_b PMOS_VTG L=5e-08 W=1.44e-06 AD=2.016e-13
+ AS=1.512e-13 PD=3.16e-06 PS=3.11e-06
mXINPUT1/XI23/XI7/MM2 N_XINPUT1/NET81_XINPUT1/XI23/XI7/MM0_d
+ N_XINPUT1/XI23/NET4_XINPUT1/XI23/XI7/MM2_g N_VDD!_XINPUT1/XI23/XI7/MM2_s
+ N_VDD!_XINPUT1/XI23/XI7/MM0_b PMOS_VTG L=5e-08 W=1.44e-06 AD=2.016e-13
+ AS=1.58175e-13 PD=3.16e-06 PS=3.105e-06
mXINPUT1/XI23/XI6/MM3 N_XINPUT1/XI23/NET4_XINPUT1/XI23/XI6/MM3_d
+ N_I0_XINPUT1/XI23/XI6/MM3_g XINPUT1/XI23/XI6/NET17
+ N_GND!_XINPUT1/XI23/XI7/MM1_b NMOS_VTG L=5e-08 W=1.63e-06 AD=1.834e-13
+ AS=2.282e-13 PD=3.49e-06 PS=3.54e-06
mXINPUT1/XI23/XI6/MM1 XINPUT1/XI23/XI6/NET17 N_S2_XINPUT1/XI23/XI6/MM1_g
+ N_GND!_XINPUT1/XI23/XI6/MM1_s N_GND!_XINPUT1/XI23/XI7/MM1_b NMOS_VTG L=5e-08
+ W=1.63e-06 AD=2.282e-13 AS=1.77425e-13 PD=3.54e-06 PS=3.485e-06
mXINPUT1/XI23/XI6/MM2 N_XINPUT1/XI23/NET4_XINPUT1/XI23/XI6/MM2_d
+ N_I0_XINPUT1/XI23/XI6/MM2_g N_VDD!_XINPUT1/XI23/XI6/MM2_s
+ N_VDD!_XINPUT1/XI23/XI7/MM0_b PMOS_VTG L=5e-08 W=1.44e-06 AD=2.016e-13
+ AS=1.512e-13 PD=3.16e-06 PS=3.11e-06
mXINPUT1/XI23/XI6/MM0 N_XINPUT1/XI23/NET4_XINPUT1/XI23/XI6/MM2_d
+ N_S2_XINPUT1/XI23/XI6/MM0_g N_VDD!_XINPUT1/XI23/XI6/MM0_s
+ N_VDD!_XINPUT1/XI23/XI7/MM0_b PMOS_VTG L=5e-08 W=1.44e-06 AD=2.016e-13
+ AS=1.58175e-13 PD=3.16e-06 PS=3.105e-06
mXINPUT1/XI23/XI5/MM1 N_XINPUT1/XI23/NET7_XINPUT1/XI23/XI5/MM1_d
+ N_NET034_XINPUT1/XI23/XI5/MM1_g XINPUT1/XI23/XI5/NET17
+ N_GND!_XINPUT1/XI23/XI7/MM1_b NMOS_VTG L=5e-08 W=1.63e-06 AD=1.834e-13
+ AS=2.282e-13 PD=3.49e-06 PS=3.54e-06
mXINPUT1/XI23/XI5/MM3 XINPUT1/XI23/XI5/NET17
+ N_XINPUT1/XI23/NET9_XINPUT1/XI23/XI5/MM3_g N_GND!_XINPUT1/XI23/XI5/MM3_s
+ N_GND!_XINPUT1/XI23/XI7/MM1_b NMOS_VTG L=5e-08 W=1.63e-06 AD=2.282e-13
+ AS=1.77425e-13 PD=3.54e-06 PS=3.485e-06
mXINPUT1/XI23/XI5/MM0 N_XINPUT1/XI23/NET7_XINPUT1/XI23/XI5/MM0_d
+ N_NET034_XINPUT1/XI23/XI5/MM0_g N_VDD!_XINPUT1/XI23/XI5/MM0_s
+ N_VDD!_XINPUT1/XI23/XI7/MM0_b PMOS_VTG L=5e-08 W=1.44e-06 AD=2.016e-13
+ AS=1.512e-13 PD=3.16e-06 PS=3.11e-06
mXINPUT1/XI23/XI5/MM2 N_XINPUT1/XI23/NET7_XINPUT1/XI23/XI5/MM0_d
+ N_XINPUT1/XI23/NET9_XINPUT1/XI23/XI5/MM2_g N_VDD!_XINPUT1/XI23/XI5/MM2_s
+ N_VDD!_XINPUT1/XI23/XI7/MM0_b PMOS_VTG L=5e-08 W=1.44e-06 AD=2.016e-13
+ AS=1.58175e-13 PD=3.16e-06 PS=3.105e-06
mXINPUT1/XI23/XI8/MM0 N_XINPUT1/XI23/NET9_XINPUT1/XI23/XI8/MM0_d
+ N_S2_XINPUT1/XI23/XI8/MM0_g N_GND!_XINPUT1/XI23/XI8/MM0_s
+ N_GND!_XINPUT1/XI23/XI7/MM1_b NMOS_VTG L=5e-08 W=1.44e-06 AD=1.161e-13
+ AS=1.0845e-13 PD=3.36e-06 PS=3.19e-06
mXINPUT1/XI23/XI8/MM1 N_XINPUT1/XI23/NET9_XINPUT1/XI23/XI8/MM1_d
+ N_S2_XINPUT1/XI23/XI8/MM1_g N_VDD!_XINPUT1/XI23/XI8/MM1_s
+ N_VDD!_XINPUT1/XI23/XI7/MM0_b PMOS_VTG L=5e-08 W=1.96e-06 AD=1.6015e-13
+ AS=1.57e-13 PD=4.57e-06 PS=4.5e-06
mXINPUT1/XI24/XI7/MM1 N_XINPUT1/NET79_XINPUT1/XI24/XI7/MM1_d
+ N_XINPUT1/XI24/NET7_XINPUT1/XI24/XI7/MM1_g XINPUT1/XI24/XI7/NET17
+ N_GND!_XINPUT1/XI23/XI7/MM1_b NMOS_VTG L=5e-08 W=1.63e-06 AD=1.834e-13
+ AS=2.282e-13 PD=3.49e-06 PS=3.54e-06
mXINPUT1/XI24/XI7/MM3 XINPUT1/XI24/XI7/NET17
+ N_XINPUT1/XI24/NET4_XINPUT1/XI24/XI7/MM3_g N_GND!_XINPUT1/XI24/XI7/MM3_s
+ N_GND!_XINPUT1/XI23/XI7/MM1_b NMOS_VTG L=5e-08 W=1.63e-06 AD=2.282e-13
+ AS=1.77425e-13 PD=3.54e-06 PS=3.485e-06
mXINPUT1/XI24/XI7/MM0 N_XINPUT1/NET79_XINPUT1/XI24/XI7/MM0_d
+ N_XINPUT1/XI24/NET7_XINPUT1/XI24/XI7/MM0_g N_VDD!_XINPUT1/XI24/XI7/MM0_s
+ N_VDD!_XINPUT1/XI23/XI7/MM0_b PMOS_VTG L=5e-08 W=1.44e-06 AD=2.016e-13
+ AS=1.512e-13 PD=3.16e-06 PS=3.11e-06
mXINPUT1/XI24/XI7/MM2 N_XINPUT1/NET79_XINPUT1/XI24/XI7/MM0_d
+ N_XINPUT1/XI24/NET4_XINPUT1/XI24/XI7/MM2_g N_VDD!_XINPUT1/XI24/XI7/MM2_s
+ N_VDD!_XINPUT1/XI23/XI7/MM0_b PMOS_VTG L=5e-08 W=1.44e-06 AD=2.016e-13
+ AS=1.58175e-13 PD=3.16e-06 PS=3.105e-06
mXINPUT1/XI24/XI6/MM3 N_XINPUT1/XI24/NET4_XINPUT1/XI24/XI6/MM3_d
+ N_I1_XINPUT1/XI24/XI6/MM3_g XINPUT1/XI24/XI6/NET17
+ N_GND!_XINPUT1/XI23/XI7/MM1_b NMOS_VTG L=5e-08 W=1.63e-06 AD=1.834e-13
+ AS=2.282e-13 PD=3.49e-06 PS=3.54e-06
mXINPUT1/XI24/XI6/MM1 XINPUT1/XI24/XI6/NET17 N_S2_XINPUT1/XI24/XI6/MM1_g
+ N_GND!_XINPUT1/XI24/XI6/MM1_s N_GND!_XINPUT1/XI23/XI7/MM1_b NMOS_VTG L=5e-08
+ W=1.63e-06 AD=2.282e-13 AS=1.77425e-13 PD=3.54e-06 PS=3.485e-06
mXINPUT1/XI24/XI6/MM2 N_XINPUT1/XI24/NET4_XINPUT1/XI24/XI6/MM2_d
+ N_I1_XINPUT1/XI24/XI6/MM2_g N_VDD!_XINPUT1/XI24/XI6/MM2_s
+ N_VDD!_XINPUT1/XI23/XI7/MM0_b PMOS_VTG L=5e-08 W=1.44e-06 AD=2.016e-13
+ AS=1.512e-13 PD=3.16e-06 PS=3.11e-06
mXINPUT1/XI24/XI6/MM0 N_XINPUT1/XI24/NET4_XINPUT1/XI24/XI6/MM2_d
+ N_S2_XINPUT1/XI24/XI6/MM0_g N_VDD!_XINPUT1/XI24/XI6/MM0_s
+ N_VDD!_XINPUT1/XI23/XI7/MM0_b PMOS_VTG L=5e-08 W=1.44e-06 AD=2.016e-13
+ AS=1.58175e-13 PD=3.16e-06 PS=3.105e-06
mXINPUT1/XI24/XI5/MM1 N_XINPUT1/XI24/NET7_XINPUT1/XI24/XI5/MM1_d
+ N_NET036_XINPUT1/XI24/XI5/MM1_g XINPUT1/XI24/XI5/NET17
+ N_GND!_XINPUT1/XI23/XI7/MM1_b NMOS_VTG L=5e-08 W=1.63e-06 AD=1.834e-13
+ AS=2.282e-13 PD=3.49e-06 PS=3.54e-06
mXINPUT1/XI24/XI5/MM3 XINPUT1/XI24/XI5/NET17
+ N_XINPUT1/XI24/NET9_XINPUT1/XI24/XI5/MM3_g N_GND!_XINPUT1/XI24/XI5/MM3_s
+ N_GND!_XINPUT1/XI23/XI7/MM1_b NMOS_VTG L=5e-08 W=1.63e-06 AD=2.282e-13
+ AS=1.77425e-13 PD=3.54e-06 PS=3.485e-06
mXINPUT1/XI24/XI5/MM0 N_XINPUT1/XI24/NET7_XINPUT1/XI24/XI5/MM0_d
+ N_NET036_XINPUT1/XI24/XI5/MM0_g N_VDD!_XINPUT1/XI24/XI5/MM0_s
+ N_VDD!_XINPUT1/XI23/XI7/MM0_b PMOS_VTG L=5e-08 W=1.44e-06 AD=2.016e-13
+ AS=1.512e-13 PD=3.16e-06 PS=3.11e-06
mXINPUT1/XI24/XI5/MM2 N_XINPUT1/XI24/NET7_XINPUT1/XI24/XI5/MM0_d
+ N_XINPUT1/XI24/NET9_XINPUT1/XI24/XI5/MM2_g N_VDD!_XINPUT1/XI24/XI5/MM2_s
+ N_VDD!_XINPUT1/XI23/XI7/MM0_b PMOS_VTG L=5e-08 W=1.44e-06 AD=2.016e-13
+ AS=1.58175e-13 PD=3.16e-06 PS=3.105e-06
mXINPUT1/XI24/XI8/MM0 N_XINPUT1/XI24/NET9_XINPUT1/XI24/XI8/MM0_d
+ N_S2_XINPUT1/XI24/XI8/MM0_g N_GND!_XINPUT1/XI24/XI8/MM0_s
+ N_GND!_XINPUT1/XI23/XI7/MM1_b NMOS_VTG L=5e-08 W=1.44e-06 AD=1.161e-13
+ AS=1.0845e-13 PD=3.36e-06 PS=3.19e-06
mXINPUT1/XI24/XI8/MM1 N_XINPUT1/XI24/NET9_XINPUT1/XI24/XI8/MM1_d
+ N_S2_XINPUT1/XI24/XI8/MM1_g N_VDD!_XINPUT1/XI24/XI8/MM1_s
+ N_VDD!_XINPUT1/XI23/XI7/MM0_b PMOS_VTG L=5e-08 W=1.96e-06 AD=1.6015e-13
+ AS=1.57e-13 PD=4.57e-06 PS=4.5e-06
mXINPUT1/XI25/XI7/MM1 N_XINPUT1/NET80_XINPUT1/XI25/XI7/MM1_d
+ N_XINPUT1/XI25/NET7_XINPUT1/XI25/XI7/MM1_g XINPUT1/XI25/XI7/NET17
+ N_GND!_XINPUT1/XI23/XI7/MM1_b NMOS_VTG L=5e-08 W=1.63e-06 AD=1.834e-13
+ AS=2.282e-13 PD=3.49e-06 PS=3.54e-06
mXINPUT1/XI25/XI7/MM3 XINPUT1/XI25/XI7/NET17
+ N_XINPUT1/XI25/NET4_XINPUT1/XI25/XI7/MM3_g N_GND!_XINPUT1/XI25/XI7/MM3_s
+ N_GND!_XINPUT1/XI23/XI7/MM1_b NMOS_VTG L=5e-08 W=1.63e-06 AD=2.282e-13
+ AS=1.77425e-13 PD=3.54e-06 PS=3.485e-06
mXINPUT1/XI25/XI7/MM0 N_XINPUT1/NET80_XINPUT1/XI25/XI7/MM0_d
+ N_XINPUT1/XI25/NET7_XINPUT1/XI25/XI7/MM0_g N_VDD!_XINPUT1/XI25/XI7/MM0_s
+ N_VDD!_XINPUT1/XI23/XI7/MM0_b PMOS_VTG L=5e-08 W=1.44e-06 AD=2.016e-13
+ AS=1.512e-13 PD=3.16e-06 PS=3.11e-06
mXINPUT1/XI25/XI7/MM2 N_XINPUT1/NET80_XINPUT1/XI25/XI7/MM0_d
+ N_XINPUT1/XI25/NET4_XINPUT1/XI25/XI7/MM2_g N_VDD!_XINPUT1/XI25/XI7/MM2_s
+ N_VDD!_XINPUT1/XI23/XI7/MM0_b PMOS_VTG L=5e-08 W=1.44e-06 AD=2.016e-13
+ AS=1.58175e-13 PD=3.16e-06 PS=3.105e-06
mXINPUT1/XI25/XI6/MM3 N_XINPUT1/XI25/NET4_XINPUT1/XI25/XI6/MM3_d
+ N_I2_XINPUT1/XI25/XI6/MM3_g XINPUT1/XI25/XI6/NET17
+ N_GND!_XINPUT1/XI23/XI7/MM1_b NMOS_VTG L=5e-08 W=1.63e-06 AD=1.834e-13
+ AS=2.282e-13 PD=3.49e-06 PS=3.54e-06
mXINPUT1/XI25/XI6/MM1 XINPUT1/XI25/XI6/NET17 N_S2_XINPUT1/XI25/XI6/MM1_g
+ N_GND!_XINPUT1/XI25/XI6/MM1_s N_GND!_XINPUT1/XI23/XI7/MM1_b NMOS_VTG L=5e-08
+ W=1.63e-06 AD=2.282e-13 AS=1.77425e-13 PD=3.54e-06 PS=3.485e-06
mXINPUT1/XI25/XI6/MM2 N_XINPUT1/XI25/NET4_XINPUT1/XI25/XI6/MM2_d
+ N_I2_XINPUT1/XI25/XI6/MM2_g N_VDD!_XINPUT1/XI25/XI6/MM2_s
+ N_VDD!_XINPUT1/XI23/XI7/MM0_b PMOS_VTG L=5e-08 W=1.44e-06 AD=2.016e-13
+ AS=1.512e-13 PD=3.16e-06 PS=3.11e-06
mXINPUT1/XI25/XI6/MM0 N_XINPUT1/XI25/NET4_XINPUT1/XI25/XI6/MM2_d
+ N_S2_XINPUT1/XI25/XI6/MM0_g N_VDD!_XINPUT1/XI25/XI6/MM0_s
+ N_VDD!_XINPUT1/XI23/XI7/MM0_b PMOS_VTG L=5e-08 W=1.44e-06 AD=2.016e-13
+ AS=1.58175e-13 PD=3.16e-06 PS=3.105e-06
mXINPUT1/XI25/XI5/MM1 N_XINPUT1/XI25/NET7_XINPUT1/XI25/XI5/MM1_d
+ N_NET038_XINPUT1/XI25/XI5/MM1_g XINPUT1/XI25/XI5/NET17
+ N_GND!_XINPUT1/XI23/XI7/MM1_b NMOS_VTG L=5e-08 W=1.63e-06 AD=1.834e-13
+ AS=2.282e-13 PD=3.49e-06 PS=3.54e-06
mXINPUT1/XI25/XI5/MM3 XINPUT1/XI25/XI5/NET17
+ N_XINPUT1/XI25/NET9_XINPUT1/XI25/XI5/MM3_g N_GND!_XINPUT1/XI25/XI5/MM3_s
+ N_GND!_XINPUT1/XI23/XI7/MM1_b NMOS_VTG L=5e-08 W=1.63e-06 AD=2.282e-13
+ AS=1.77425e-13 PD=3.54e-06 PS=3.485e-06
mXINPUT1/XI25/XI5/MM0 N_XINPUT1/XI25/NET7_XINPUT1/XI25/XI5/MM0_d
+ N_NET038_XINPUT1/XI25/XI5/MM0_g N_VDD!_XINPUT1/XI25/XI5/MM0_s
+ N_VDD!_XINPUT1/XI23/XI7/MM0_b PMOS_VTG L=5e-08 W=1.44e-06 AD=2.016e-13
+ AS=1.512e-13 PD=3.16e-06 PS=3.11e-06
mXINPUT1/XI25/XI5/MM2 N_XINPUT1/XI25/NET7_XINPUT1/XI25/XI5/MM0_d
+ N_XINPUT1/XI25/NET9_XINPUT1/XI25/XI5/MM2_g N_VDD!_XINPUT1/XI25/XI5/MM2_s
+ N_VDD!_XINPUT1/XI23/XI7/MM0_b PMOS_VTG L=5e-08 W=1.44e-06 AD=2.016e-13
+ AS=1.58175e-13 PD=3.16e-06 PS=3.105e-06
mXINPUT1/XI25/XI8/MM0 N_XINPUT1/XI25/NET9_XINPUT1/XI25/XI8/MM0_d
+ N_S2_XINPUT1/XI25/XI8/MM0_g N_GND!_XINPUT1/XI25/XI8/MM0_s
+ N_GND!_XINPUT1/XI23/XI7/MM1_b NMOS_VTG L=5e-08 W=1.44e-06 AD=1.161e-13
+ AS=1.0845e-13 PD=3.36e-06 PS=3.19e-06
mXINPUT1/XI25/XI8/MM1 N_XINPUT1/XI25/NET9_XINPUT1/XI25/XI8/MM1_d
+ N_S2_XINPUT1/XI25/XI8/MM1_g N_VDD!_XINPUT1/XI25/XI8/MM1_s
+ N_VDD!_XINPUT1/XI23/XI7/MM0_b PMOS_VTG L=5e-08 W=1.96e-06 AD=1.6015e-13
+ AS=1.57e-13 PD=4.57e-06 PS=4.5e-06
mXINPUT1/XI26/XI7/MM1 N_XINPUT1/NET82_XINPUT1/XI26/XI7/MM1_d
+ N_XINPUT1/XI26/NET7_XINPUT1/XI26/XI7/MM1_g XINPUT1/XI26/XI7/NET17
+ N_GND!_XINPUT1/XI23/XI7/MM1_b NMOS_VTG L=5e-08 W=1.63e-06 AD=1.834e-13
+ AS=2.282e-13 PD=3.49e-06 PS=3.54e-06
mXINPUT1/XI26/XI7/MM3 XINPUT1/XI26/XI7/NET17
+ N_XINPUT1/XI26/NET4_XINPUT1/XI26/XI7/MM3_g N_GND!_XINPUT1/XI26/XI7/MM3_s
+ N_GND!_XINPUT1/XI23/XI7/MM1_b NMOS_VTG L=5e-08 W=1.63e-06 AD=2.282e-13
+ AS=1.77425e-13 PD=3.54e-06 PS=3.485e-06
mXINPUT1/XI26/XI7/MM0 N_XINPUT1/NET82_XINPUT1/XI26/XI7/MM0_d
+ N_XINPUT1/XI26/NET7_XINPUT1/XI26/XI7/MM0_g N_VDD!_XINPUT1/XI26/XI7/MM0_s
+ N_VDD!_XINPUT1/XI23/XI7/MM0_b PMOS_VTG L=5e-08 W=1.44e-06 AD=2.016e-13
+ AS=1.512e-13 PD=3.16e-06 PS=3.11e-06
mXINPUT1/XI26/XI7/MM2 N_XINPUT1/NET82_XINPUT1/XI26/XI7/MM0_d
+ N_XINPUT1/XI26/NET4_XINPUT1/XI26/XI7/MM2_g N_VDD!_XINPUT1/XI26/XI7/MM2_s
+ N_VDD!_XINPUT1/XI23/XI7/MM0_b PMOS_VTG L=5e-08 W=1.44e-06 AD=2.016e-13
+ AS=1.58175e-13 PD=3.16e-06 PS=3.105e-06
mXINPUT1/XI26/XI6/MM3 N_XINPUT1/XI26/NET4_XINPUT1/XI26/XI6/MM3_d
+ N_I3_XINPUT1/XI26/XI6/MM3_g XINPUT1/XI26/XI6/NET17
+ N_GND!_XINPUT1/XI23/XI7/MM1_b NMOS_VTG L=5e-08 W=1.63e-06 AD=1.834e-13
+ AS=2.282e-13 PD=3.49e-06 PS=3.54e-06
mXINPUT1/XI26/XI6/MM1 XINPUT1/XI26/XI6/NET17 N_S2_XINPUT1/XI26/XI6/MM1_g
+ N_GND!_XINPUT1/XI26/XI6/MM1_s N_GND!_XINPUT1/XI23/XI7/MM1_b NMOS_VTG L=5e-08
+ W=1.63e-06 AD=2.282e-13 AS=1.77425e-13 PD=3.54e-06 PS=3.485e-06
mXINPUT1/XI26/XI6/MM2 N_XINPUT1/XI26/NET4_XINPUT1/XI26/XI6/MM2_d
+ N_I3_XINPUT1/XI26/XI6/MM2_g N_VDD!_XINPUT1/XI26/XI6/MM2_s
+ N_VDD!_XINPUT1/XI23/XI7/MM0_b PMOS_VTG L=5e-08 W=1.44e-06 AD=2.016e-13
+ AS=1.512e-13 PD=3.16e-06 PS=3.11e-06
mXINPUT1/XI26/XI6/MM0 N_XINPUT1/XI26/NET4_XINPUT1/XI26/XI6/MM2_d
+ N_S2_XINPUT1/XI26/XI6/MM0_g N_VDD!_XINPUT1/XI26/XI6/MM0_s
+ N_VDD!_XINPUT1/XI23/XI7/MM0_b PMOS_VTG L=5e-08 W=1.44e-06 AD=2.016e-13
+ AS=1.58175e-13 PD=3.16e-06 PS=3.105e-06
mXINPUT1/XI26/XI5/MM1 N_XINPUT1/XI26/NET7_XINPUT1/XI26/XI5/MM1_d
+ N_NET039_XINPUT1/XI26/XI5/MM1_g XINPUT1/XI26/XI5/NET17
+ N_GND!_XINPUT1/XI23/XI7/MM1_b NMOS_VTG L=5e-08 W=1.63e-06 AD=1.834e-13
+ AS=2.282e-13 PD=3.49e-06 PS=3.54e-06
mXINPUT1/XI26/XI5/MM3 XINPUT1/XI26/XI5/NET17
+ N_XINPUT1/XI26/NET9_XINPUT1/XI26/XI5/MM3_g N_GND!_XINPUT1/XI26/XI5/MM3_s
+ N_GND!_XINPUT1/XI23/XI7/MM1_b NMOS_VTG L=5e-08 W=1.63e-06 AD=2.282e-13
+ AS=1.77425e-13 PD=3.54e-06 PS=3.485e-06
mXINPUT1/XI26/XI5/MM0 N_XINPUT1/XI26/NET7_XINPUT1/XI26/XI5/MM0_d
+ N_NET039_XINPUT1/XI26/XI5/MM0_g N_VDD!_XINPUT1/XI26/XI5/MM0_s
+ N_VDD!_XINPUT1/XI23/XI7/MM0_b PMOS_VTG L=5e-08 W=1.44e-06 AD=2.016e-13
+ AS=1.512e-13 PD=3.16e-06 PS=3.11e-06
mXINPUT1/XI26/XI5/MM2 N_XINPUT1/XI26/NET7_XINPUT1/XI26/XI5/MM0_d
+ N_XINPUT1/XI26/NET9_XINPUT1/XI26/XI5/MM2_g N_VDD!_XINPUT1/XI26/XI5/MM2_s
+ N_VDD!_XINPUT1/XI23/XI7/MM0_b PMOS_VTG L=5e-08 W=1.44e-06 AD=2.016e-13
+ AS=1.58175e-13 PD=3.16e-06 PS=3.105e-06
mXINPUT1/XI26/XI8/MM0 N_XINPUT1/XI26/NET9_XINPUT1/XI26/XI8/MM0_d
+ N_S2_XINPUT1/XI26/XI8/MM0_g N_GND!_XINPUT1/XI26/XI8/MM0_s
+ N_GND!_XINPUT1/XI23/XI7/MM1_b NMOS_VTG L=5e-08 W=1.44e-06 AD=1.161e-13
+ AS=1.0845e-13 PD=3.36e-06 PS=3.19e-06
mXINPUT1/XI26/XI8/MM1 N_XINPUT1/XI26/NET9_XINPUT1/XI26/XI8/MM1_d
+ N_S2_XINPUT1/XI26/XI8/MM1_g N_VDD!_XINPUT1/XI26/XI8/MM1_s
+ N_VDD!_XINPUT1/XI23/XI7/MM0_b PMOS_VTG L=5e-08 W=1.96e-06 AD=1.6015e-13
+ AS=1.57e-13 PD=4.57e-06 PS=4.5e-06
mXADDER1/XI1/XI1/XI7/MM1 N_XADDER1/XI1/NET17_XADDER1/XI1/XI1/XI7/MM1_d
+ N_XADDER1/XI1/XI1/NET7_XADDER1/XI1/XI1/XI7/MM1_g XADDER1/XI1/XI1/XI7/NET17
+ N_GND!_XADDER1/XI3/XI6/MM0_b NMOS_VTG L=5e-08 W=1.63e-06 AD=1.834e-13
+ AS=2.282e-13 PD=3.49e-06 PS=3.54e-06
mXADDER1/XI1/XI1/XI7/MM3 XADDER1/XI1/XI1/XI7/NET17
+ N_XADDER1/XI1/XI1/NET4_XADDER1/XI1/XI1/XI7/MM3_g
+ N_GND!_XADDER1/XI1/XI1/XI7/MM3_s N_GND!_XADDER1/XI3/XI6/MM0_b NMOS_VTG L=5e-08
+ W=1.63e-06 AD=2.282e-13 AS=1.77425e-13 PD=3.54e-06 PS=3.485e-06
mXADDER1/XI1/XI1/XI7/MM0 N_XADDER1/XI1/NET17_XADDER1/XI1/XI1/XI7/MM0_d
+ N_XADDER1/XI1/XI1/NET7_XADDER1/XI1/XI1/XI7/MM0_g
+ N_VDD!_XADDER1/XI1/XI1/XI7/MM0_s N_VDD!_XADDER1/XI3/XI6/MM1_b PMOS_VTG L=5e-08
+ W=1.44e-06 AD=2.016e-13 AS=1.512e-13 PD=3.16e-06 PS=3.11e-06
mXADDER1/XI1/XI1/XI7/MM2 N_XADDER1/XI1/NET17_XADDER1/XI1/XI1/XI7/MM0_d
+ N_XADDER1/XI1/XI1/NET4_XADDER1/XI1/XI1/XI7/MM2_g
+ N_VDD!_XADDER1/XI1/XI1/XI7/MM2_s N_VDD!_XADDER1/XI3/XI6/MM1_b PMOS_VTG L=5e-08
+ W=1.44e-06 AD=2.016e-13 AS=1.58175e-13 PD=3.16e-06 PS=3.105e-06
mXADDER1/XI1/XI1/XI6/MM3 N_XADDER1/XI1/XI1/NET4_XADDER1/XI1/XI1/XI6/MM3_d
+ N_XADDER1/XI1/NET15_XADDER1/XI1/XI1/XI6/MM3_g XADDER1/XI1/XI1/XI6/NET17
+ N_GND!_XADDER1/XI3/XI6/MM0_b NMOS_VTG L=5e-08 W=1.63e-06 AD=1.834e-13
+ AS=2.282e-13 PD=3.49e-06 PS=3.54e-06
mXADDER1/XI1/XI1/XI6/MM1 XADDER1/XI1/XI1/XI6/NET17
+ N_NET33_XADDER1/XI1/XI1/XI6/MM1_g N_GND!_XADDER1/XI1/XI1/XI6/MM1_s
+ N_GND!_XADDER1/XI3/XI6/MM0_b NMOS_VTG L=5e-08 W=1.63e-06 AD=2.282e-13
+ AS=1.77425e-13 PD=3.54e-06 PS=3.485e-06
mXADDER1/XI1/XI1/XI6/MM2 N_XADDER1/XI1/XI1/NET4_XADDER1/XI1/XI1/XI6/MM2_d
+ N_XADDER1/XI1/NET15_XADDER1/XI1/XI1/XI6/MM2_g N_VDD!_XADDER1/XI1/XI1/XI6/MM2_s
+ N_VDD!_XADDER1/XI3/XI6/MM1_b PMOS_VTG L=5e-08 W=1.44e-06 AD=2.016e-13
+ AS=1.512e-13 PD=3.16e-06 PS=3.11e-06
mXADDER1/XI1/XI1/XI6/MM0 N_XADDER1/XI1/XI1/NET4_XADDER1/XI1/XI1/XI6/MM2_d
+ N_NET33_XADDER1/XI1/XI1/XI6/MM0_g N_VDD!_XADDER1/XI1/XI1/XI6/MM0_s
+ N_VDD!_XADDER1/XI3/XI6/MM1_b PMOS_VTG L=5e-08 W=1.44e-06 AD=2.016e-13
+ AS=1.58175e-13 PD=3.16e-06 PS=3.105e-06
mXADDER1/XI1/XI1/XI5/MM1 N_XADDER1/XI1/XI1/NET7_XADDER1/XI1/XI1/XI5/MM1_d
+ N_NET36_XADDER1/XI1/XI1/XI5/MM1_g XADDER1/XI1/XI1/XI5/NET17
+ N_GND!_XADDER1/XI3/XI6/MM0_b NMOS_VTG L=5e-08 W=1.63e-06 AD=1.834e-13
+ AS=2.282e-13 PD=3.49e-06 PS=3.54e-06
mXADDER1/XI1/XI1/XI5/MM3 XADDER1/XI1/XI1/XI5/NET17
+ N_XADDER1/XI1/XI1/NET9_XADDER1/XI1/XI1/XI5/MM3_g
+ N_GND!_XADDER1/XI1/XI1/XI5/MM3_s N_GND!_XADDER1/XI3/XI6/MM0_b NMOS_VTG L=5e-08
+ W=1.63e-06 AD=2.282e-13 AS=1.77425e-13 PD=3.54e-06 PS=3.485e-06
mXADDER1/XI1/XI1/XI5/MM0 N_XADDER1/XI1/XI1/NET7_XADDER1/XI1/XI1/XI5/MM0_d
+ N_NET36_XADDER1/XI1/XI1/XI5/MM0_g N_VDD!_XADDER1/XI1/XI1/XI5/MM0_s
+ N_VDD!_XADDER1/XI3/XI6/MM1_b PMOS_VTG L=5e-08 W=1.44e-06 AD=2.016e-13
+ AS=1.512e-13 PD=3.16e-06 PS=3.11e-06
mXADDER1/XI1/XI1/XI5/MM2 N_XADDER1/XI1/XI1/NET7_XADDER1/XI1/XI1/XI5/MM0_d
+ N_XADDER1/XI1/XI1/NET9_XADDER1/XI1/XI1/XI5/MM2_g
+ N_VDD!_XADDER1/XI1/XI1/XI5/MM2_s N_VDD!_XADDER1/XI3/XI6/MM1_b PMOS_VTG L=5e-08
+ W=1.44e-06 AD=2.016e-13 AS=1.58175e-13 PD=3.16e-06 PS=3.105e-06
mXADDER1/XI1/XI1/XI8/MM0 N_XADDER1/XI1/XI1/NET9_XADDER1/XI1/XI1/XI8/MM0_d
+ N_NET33_XADDER1/XI1/XI1/XI8/MM0_g N_GND!_XADDER1/XI1/XI1/XI8/MM0_s
+ N_GND!_XADDER1/XI3/XI6/MM0_b NMOS_VTG L=5e-08 W=1.44e-06 AD=1.161e-13
+ AS=1.0845e-13 PD=3.36e-06 PS=3.19e-06
mXADDER1/XI1/XI1/XI8/MM1 N_XADDER1/XI1/XI1/NET9_XADDER1/XI1/XI1/XI8/MM1_d
+ N_NET33_XADDER1/XI1/XI1/XI8/MM1_g N_VDD!_XADDER1/XI1/XI1/XI8/MM1_s
+ N_VDD!_XADDER1/XI3/XI6/MM1_b PMOS_VTG L=5e-08 W=1.96e-06 AD=1.6015e-13
+ AS=1.57e-13 PD=4.57e-06 PS=4.5e-06
mXADDER1/XI2/XI1/XI7/MM1 N_XADDER1/XI2/NET24_XADDER1/XI2/XI1/XI7/MM1_d
+ N_XADDER1/XI2/XI1/NET7_XADDER1/XI2/XI1/XI7/MM1_g XADDER1/XI2/XI1/XI7/NET17
+ N_GND!_XADDER1/XI3/XI6/MM0_b NMOS_VTG L=5e-08 W=1.63e-06 AD=1.834e-13
+ AS=2.282e-13 PD=3.49e-06 PS=3.54e-06
mXADDER1/XI2/XI1/XI7/MM3 XADDER1/XI2/XI1/XI7/NET17
+ N_XADDER1/XI2/XI1/NET4_XADDER1/XI2/XI1/XI7/MM3_g
+ N_GND!_XADDER1/XI2/XI1/XI7/MM3_s N_GND!_XADDER1/XI3/XI6/MM0_b NMOS_VTG L=5e-08
+ W=1.63e-06 AD=2.282e-13 AS=1.77425e-13 PD=3.54e-06 PS=3.485e-06
mXADDER1/XI2/XI1/XI7/MM0 N_XADDER1/XI2/NET24_XADDER1/XI2/XI1/XI7/MM0_d
+ N_XADDER1/XI2/XI1/NET7_XADDER1/XI2/XI1/XI7/MM0_g
+ N_VDD!_XADDER1/XI2/XI1/XI7/MM0_s N_VDD!_XADDER1/XI3/XI6/MM1_b PMOS_VTG L=5e-08
+ W=1.44e-06 AD=2.016e-13 AS=1.512e-13 PD=3.16e-06 PS=3.11e-06
mXADDER1/XI2/XI1/XI7/MM2 N_XADDER1/XI2/NET24_XADDER1/XI2/XI1/XI7/MM0_d
+ N_XADDER1/XI2/XI1/NET4_XADDER1/XI2/XI1/XI7/MM2_g
+ N_VDD!_XADDER1/XI2/XI1/XI7/MM2_s N_VDD!_XADDER1/XI3/XI6/MM1_b PMOS_VTG L=5e-08
+ W=1.44e-06 AD=2.016e-13 AS=1.58175e-13 PD=3.16e-06 PS=3.105e-06
mXADDER1/XI2/XI1/XI6/MM3 N_XADDER1/XI2/XI1/NET4_XADDER1/XI2/XI1/XI6/MM3_d
+ N_XADDER1/XI2/NET22_XADDER1/XI2/XI1/XI6/MM3_g XADDER1/XI2/XI1/XI6/NET17
+ N_GND!_XADDER1/XI3/XI6/MM0_b NMOS_VTG L=5e-08 W=1.63e-06 AD=1.834e-13
+ AS=2.282e-13 PD=3.49e-06 PS=3.54e-06
mXADDER1/XI2/XI1/XI6/MM1 XADDER1/XI2/XI1/XI6/NET17
+ N_NET33_XADDER1/XI2/XI1/XI6/MM1_g N_GND!_XADDER1/XI2/XI1/XI6/MM1_s
+ N_GND!_XADDER1/XI3/XI6/MM0_b NMOS_VTG L=5e-08 W=1.63e-06 AD=2.282e-13
+ AS=1.77425e-13 PD=3.54e-06 PS=3.485e-06
mXADDER1/XI2/XI1/XI6/MM2 N_XADDER1/XI2/XI1/NET4_XADDER1/XI2/XI1/XI6/MM2_d
+ N_XADDER1/XI2/NET22_XADDER1/XI2/XI1/XI6/MM2_g N_VDD!_XADDER1/XI2/XI1/XI6/MM2_s
+ N_VDD!_XADDER1/XI3/XI6/MM1_b PMOS_VTG L=5e-08 W=1.44e-06 AD=2.016e-13
+ AS=1.512e-13 PD=3.16e-06 PS=3.11e-06
mXADDER1/XI2/XI1/XI6/MM0 N_XADDER1/XI2/XI1/NET4_XADDER1/XI2/XI1/XI6/MM2_d
+ N_NET33_XADDER1/XI2/XI1/XI6/MM0_g N_VDD!_XADDER1/XI2/XI1/XI6/MM0_s
+ N_VDD!_XADDER1/XI3/XI6/MM1_b PMOS_VTG L=5e-08 W=1.44e-06 AD=2.016e-13
+ AS=1.58175e-13 PD=3.16e-06 PS=3.105e-06
mXADDER1/XI2/XI1/XI5/MM1 N_XADDER1/XI2/XI1/NET7_XADDER1/XI2/XI1/XI5/MM1_d
+ N_NET35_XADDER1/XI2/XI1/XI5/MM1_g XADDER1/XI2/XI1/XI5/NET17
+ N_GND!_XADDER1/XI3/XI6/MM0_b NMOS_VTG L=5e-08 W=1.63e-06 AD=1.834e-13
+ AS=2.282e-13 PD=3.49e-06 PS=3.54e-06
mXADDER1/XI2/XI1/XI5/MM3 XADDER1/XI2/XI1/XI5/NET17
+ N_XADDER1/XI2/XI1/NET9_XADDER1/XI2/XI1/XI5/MM3_g
+ N_GND!_XADDER1/XI2/XI1/XI5/MM3_s N_GND!_XADDER1/XI3/XI6/MM0_b NMOS_VTG L=5e-08
+ W=1.63e-06 AD=2.282e-13 AS=1.77425e-13 PD=3.54e-06 PS=3.485e-06
mXADDER1/XI2/XI1/XI5/MM0 N_XADDER1/XI2/XI1/NET7_XADDER1/XI2/XI1/XI5/MM0_d
+ N_NET35_XADDER1/XI2/XI1/XI5/MM0_g N_VDD!_XADDER1/XI2/XI1/XI5/MM0_s
+ N_VDD!_XADDER1/XI3/XI6/MM1_b PMOS_VTG L=5e-08 W=1.44e-06 AD=2.016e-13
+ AS=1.512e-13 PD=3.16e-06 PS=3.11e-06
mXADDER1/XI2/XI1/XI5/MM2 N_XADDER1/XI2/XI1/NET7_XADDER1/XI2/XI1/XI5/MM0_d
+ N_XADDER1/XI2/XI1/NET9_XADDER1/XI2/XI1/XI5/MM2_g
+ N_VDD!_XADDER1/XI2/XI1/XI5/MM2_s N_VDD!_XADDER1/XI3/XI6/MM1_b PMOS_VTG L=5e-08
+ W=1.44e-06 AD=2.016e-13 AS=1.58175e-13 PD=3.16e-06 PS=3.105e-06
mXADDER1/XI2/XI1/XI8/MM0 N_XADDER1/XI2/XI1/NET9_XADDER1/XI2/XI1/XI8/MM0_d
+ N_NET33_XADDER1/XI2/XI1/XI8/MM0_g N_GND!_XADDER1/XI2/XI1/XI8/MM0_s
+ N_GND!_XADDER1/XI3/XI6/MM0_b NMOS_VTG L=5e-08 W=1.44e-06 AD=1.161e-13
+ AS=1.0845e-13 PD=3.36e-06 PS=3.19e-06
mXADDER1/XI2/XI1/XI8/MM1 N_XADDER1/XI2/XI1/NET9_XADDER1/XI2/XI1/XI8/MM1_d
+ N_NET33_XADDER1/XI2/XI1/XI8/MM1_g N_VDD!_XADDER1/XI2/XI1/XI8/MM1_s
+ N_VDD!_XADDER1/XI3/XI6/MM1_b PMOS_VTG L=5e-08 W=1.96e-06 AD=1.6015e-13
+ AS=1.57e-13 PD=4.57e-06 PS=4.5e-06
mXOUTPUT1/XI0/XI7/MM1 N_NET034_XOUTPUT1/XI0/XI7/MM1_d
+ N_XOUTPUT1/XI0/NET7_XOUTPUT1/XI0/XI7/MM1_g XOUTPUT1/XI0/XI7/NET17
+ N_GND!_XOUTPUT1/XI0/XI7/MM1_b NMOS_VTG L=5e-08 W=1.63e-06 AD=1.834e-13
+ AS=2.282e-13 PD=3.49e-06 PS=3.54e-06
mXOUTPUT1/XI0/XI7/MM3 XOUTPUT1/XI0/XI7/NET17
+ N_XOUTPUT1/XI0/NET4_XOUTPUT1/XI0/XI7/MM3_g N_GND!_XOUTPUT1/XI0/XI7/MM3_s
+ N_GND!_XOUTPUT1/XI0/XI7/MM1_b NMOS_VTG L=5e-08 W=1.63e-06 AD=2.282e-13
+ AS=1.77425e-13 PD=3.54e-06 PS=3.485e-06
mXOUTPUT1/XI0/XI7/MM0 N_NET034_XOUTPUT1/XI0/XI7/MM0_d
+ N_XOUTPUT1/XI0/NET7_XOUTPUT1/XI0/XI7/MM0_g N_VDD!_XOUTPUT1/XI0/XI7/MM0_s
+ N_VDD!_XOUTPUT1/XI0/XI7/MM0_b PMOS_VTG L=5e-08 W=1.44e-06 AD=2.016e-13
+ AS=1.512e-13 PD=3.16e-06 PS=3.11e-06
mXOUTPUT1/XI0/XI7/MM2 N_NET034_XOUTPUT1/XI0/XI7/MM0_d
+ N_XOUTPUT1/XI0/NET4_XOUTPUT1/XI0/XI7/MM2_g N_VDD!_XOUTPUT1/XI0/XI7/MM2_s
+ N_VDD!_XOUTPUT1/XI0/XI7/MM0_b PMOS_VTG L=5e-08 W=1.44e-06 AD=2.016e-13
+ AS=1.58175e-13 PD=3.16e-06 PS=3.105e-06
mXOUTPUT1/XI0/XI6/MM3 N_XOUTPUT1/XI0/NET4_XOUTPUT1/XI0/XI6/MM3_d
+ N_NET70_XOUTPUT1/XI0/XI6/MM3_g XOUTPUT1/XI0/XI6/NET17
+ N_GND!_XOUTPUT1/XI0/XI7/MM1_b NMOS_VTG L=5e-08 W=1.63e-06 AD=1.834e-13
+ AS=2.282e-13 PD=3.49e-06 PS=3.54e-06
mXOUTPUT1/XI0/XI6/MM1 XOUTPUT1/XI0/XI6/NET17 N_NET69_XOUTPUT1/XI0/XI6/MM1_g
+ N_GND!_XOUTPUT1/XI0/XI6/MM1_s N_GND!_XOUTPUT1/XI0/XI7/MM1_b NMOS_VTG L=5e-08
+ W=1.63e-06 AD=2.282e-13 AS=1.77425e-13 PD=3.54e-06 PS=3.485e-06
mXOUTPUT1/XI0/XI6/MM2 N_XOUTPUT1/XI0/NET4_XOUTPUT1/XI0/XI6/MM2_d
+ N_NET70_XOUTPUT1/XI0/XI6/MM2_g N_VDD!_XOUTPUT1/XI0/XI6/MM2_s
+ N_VDD!_XOUTPUT1/XI0/XI7/MM0_b PMOS_VTG L=5e-08 W=1.44e-06 AD=2.016e-13
+ AS=1.512e-13 PD=3.16e-06 PS=3.11e-06
mXOUTPUT1/XI0/XI6/MM0 N_XOUTPUT1/XI0/NET4_XOUTPUT1/XI0/XI6/MM2_d
+ N_NET69_XOUTPUT1/XI0/XI6/MM0_g N_VDD!_XOUTPUT1/XI0/XI6/MM0_s
+ N_VDD!_XOUTPUT1/XI0/XI7/MM0_b PMOS_VTG L=5e-08 W=1.44e-06 AD=2.016e-13
+ AS=1.58175e-13 PD=3.16e-06 PS=3.105e-06
mXOUTPUT1/XI0/XI5/MM1 N_XOUTPUT1/XI0/NET7_XOUTPUT1/XI0/XI5/MM1_d
+ N_NET77_XOUTPUT1/XI0/XI5/MM1_g XOUTPUT1/XI0/XI5/NET17
+ N_GND!_XOUTPUT1/XI0/XI7/MM1_b NMOS_VTG L=5e-08 W=1.63e-06 AD=1.834e-13
+ AS=2.282e-13 PD=3.49e-06 PS=3.54e-06
mXOUTPUT1/XI0/XI5/MM3 XOUTPUT1/XI0/XI5/NET17
+ N_XOUTPUT1/XI0/NET9_XOUTPUT1/XI0/XI5/MM3_g N_GND!_XOUTPUT1/XI0/XI5/MM3_s
+ N_GND!_XOUTPUT1/XI0/XI7/MM1_b NMOS_VTG L=5e-08 W=1.63e-06 AD=2.282e-13
+ AS=1.77425e-13 PD=3.54e-06 PS=3.485e-06
mXOUTPUT1/XI0/XI5/MM0 N_XOUTPUT1/XI0/NET7_XOUTPUT1/XI0/XI5/MM0_d
+ N_NET77_XOUTPUT1/XI0/XI5/MM0_g N_VDD!_XOUTPUT1/XI0/XI5/MM0_s
+ N_VDD!_XOUTPUT1/XI0/XI7/MM0_b PMOS_VTG L=5e-08 W=1.44e-06 AD=2.016e-13
+ AS=1.512e-13 PD=3.16e-06 PS=3.11e-06
mXOUTPUT1/XI0/XI5/MM2 N_XOUTPUT1/XI0/NET7_XOUTPUT1/XI0/XI5/MM0_d
+ N_XOUTPUT1/XI0/NET9_XOUTPUT1/XI0/XI5/MM2_g N_VDD!_XOUTPUT1/XI0/XI5/MM2_s
+ N_VDD!_XOUTPUT1/XI0/XI7/MM0_b PMOS_VTG L=5e-08 W=1.44e-06 AD=2.016e-13
+ AS=1.58175e-13 PD=3.16e-06 PS=3.105e-06
mXOUTPUT1/XI0/XI8/MM0 N_XOUTPUT1/XI0/NET9_XOUTPUT1/XI0/XI8/MM0_d
+ N_NET69_XOUTPUT1/XI0/XI8/MM0_g N_GND!_XOUTPUT1/XI0/XI8/MM0_s
+ N_GND!_XOUTPUT1/XI0/XI7/MM1_b NMOS_VTG L=5e-08 W=1.44e-06 AD=1.161e-13
+ AS=1.0845e-13 PD=3.36e-06 PS=3.19e-06
mXOUTPUT1/XI0/XI8/MM1 N_XOUTPUT1/XI0/NET9_XOUTPUT1/XI0/XI8/MM1_d
+ N_NET69_XOUTPUT1/XI0/XI8/MM1_g N_VDD!_XOUTPUT1/XI0/XI8/MM1_s
+ N_VDD!_XOUTPUT1/XI0/XI7/MM0_b PMOS_VTG L=5e-08 W=1.96e-06 AD=1.6015e-13
+ AS=1.57e-13 PD=4.57e-06 PS=4.5e-06
mXADDER1/XI3/XI3/XI7/MM1 N_XADDER1/XI3/NET25_XADDER1/XI3/XI3/XI7/MM1_d
+ N_XADDER1/XI3/XI3/NET7_XADDER1/XI3/XI3/XI7/MM1_g XADDER1/XI3/XI3/XI7/NET17
+ N_GND!_XADDER1/XI3/XI6/MM0_b NMOS_VTG L=5e-08 W=1.63e-06 AD=1.834e-13
+ AS=2.282e-13 PD=3.49e-06 PS=3.54e-06
mXADDER1/XI3/XI3/XI7/MM3 XADDER1/XI3/XI3/XI7/NET17
+ N_XADDER1/XI3/XI3/NET4_XADDER1/XI3/XI3/XI7/MM3_g
+ N_GND!_XADDER1/XI3/XI3/XI7/MM3_s N_GND!_XADDER1/XI3/XI6/MM0_b NMOS_VTG L=5e-08
+ W=1.63e-06 AD=2.282e-13 AS=1.77425e-13 PD=3.54e-06 PS=3.485e-06
mXADDER1/XI3/XI3/XI7/MM0 N_XADDER1/XI3/NET25_XADDER1/XI3/XI3/XI7/MM0_d
+ N_XADDER1/XI3/XI3/NET7_XADDER1/XI3/XI3/XI7/MM0_g
+ N_VDD!_XADDER1/XI3/XI3/XI7/MM0_s N_VDD!_XADDER1/XI3/XI6/MM1_b PMOS_VTG L=5e-08
+ W=1.44e-06 AD=2.016e-13 AS=1.512e-13 PD=3.16e-06 PS=3.11e-06
mXADDER1/XI3/XI3/XI7/MM2 N_XADDER1/XI3/NET25_XADDER1/XI3/XI3/XI7/MM0_d
+ N_XADDER1/XI3/XI3/NET4_XADDER1/XI3/XI3/XI7/MM2_g
+ N_VDD!_XADDER1/XI3/XI3/XI7/MM2_s N_VDD!_XADDER1/XI3/XI6/MM1_b PMOS_VTG L=5e-08
+ W=1.44e-06 AD=2.016e-13 AS=1.58175e-13 PD=3.16e-06 PS=3.105e-06
mXADDER1/XI3/XI3/XI6/MM3 N_XADDER1/XI3/XI3/NET4_XADDER1/XI3/XI3/XI6/MM3_d
+ N_XADDER1/XI3/NET30_XADDER1/XI3/XI3/XI6/MM3_g XADDER1/XI3/XI3/XI6/NET17
+ N_GND!_XADDER1/XI3/XI6/MM0_b NMOS_VTG L=5e-08 W=1.63e-06 AD=1.834e-13
+ AS=2.282e-13 PD=3.49e-06 PS=3.54e-06
mXADDER1/XI3/XI3/XI6/MM1 XADDER1/XI3/XI3/XI6/NET17
+ N_NET33_XADDER1/XI3/XI3/XI6/MM1_g N_GND!_XADDER1/XI3/XI3/XI6/MM1_s
+ N_GND!_XADDER1/XI3/XI6/MM0_b NMOS_VTG L=5e-08 W=1.63e-06 AD=2.282e-13
+ AS=1.77425e-13 PD=3.54e-06 PS=3.485e-06
mXADDER1/XI3/XI3/XI6/MM2 N_XADDER1/XI3/XI3/NET4_XADDER1/XI3/XI3/XI6/MM2_d
+ N_XADDER1/XI3/NET30_XADDER1/XI3/XI3/XI6/MM2_g N_VDD!_XADDER1/XI3/XI3/XI6/MM2_s
+ N_VDD!_XADDER1/XI3/XI6/MM1_b PMOS_VTG L=5e-08 W=1.44e-06 AD=2.016e-13
+ AS=1.512e-13 PD=3.16e-06 PS=3.11e-06
mXADDER1/XI3/XI3/XI6/MM0 N_XADDER1/XI3/XI3/NET4_XADDER1/XI3/XI3/XI6/MM2_d
+ N_NET33_XADDER1/XI3/XI3/XI6/MM0_g N_VDD!_XADDER1/XI3/XI3/XI6/MM0_s
+ N_VDD!_XADDER1/XI3/XI6/MM1_b PMOS_VTG L=5e-08 W=1.44e-06 AD=2.016e-13
+ AS=1.58175e-13 PD=3.16e-06 PS=3.105e-06
mXADDER1/XI3/XI3/XI5/MM1 N_XADDER1/XI3/XI3/NET7_XADDER1/XI3/XI3/XI5/MM1_d
+ N_NET68_XADDER1/XI3/XI3/XI5/MM1_g XADDER1/XI3/XI3/XI5/NET17
+ N_GND!_XADDER1/XI3/XI6/MM0_b NMOS_VTG L=5e-08 W=1.63e-06 AD=1.834e-13
+ AS=2.282e-13 PD=3.49e-06 PS=3.54e-06
mXADDER1/XI3/XI3/XI5/MM3 XADDER1/XI3/XI3/XI5/NET17
+ N_XADDER1/XI3/XI3/NET9_XADDER1/XI3/XI3/XI5/MM3_g
+ N_GND!_XADDER1/XI3/XI3/XI5/MM3_s N_GND!_XADDER1/XI3/XI6/MM0_b NMOS_VTG L=5e-08
+ W=1.63e-06 AD=2.282e-13 AS=1.77425e-13 PD=3.54e-06 PS=3.485e-06
mXADDER1/XI3/XI3/XI5/MM0 N_XADDER1/XI3/XI3/NET7_XADDER1/XI3/XI3/XI5/MM0_d
+ N_NET68_XADDER1/XI3/XI3/XI5/MM0_g N_VDD!_XADDER1/XI3/XI3/XI5/MM0_s
+ N_VDD!_XADDER1/XI3/XI6/MM1_b PMOS_VTG L=5e-08 W=1.44e-06 AD=2.016e-13
+ AS=1.512e-13 PD=3.16e-06 PS=3.11e-06
mXADDER1/XI3/XI3/XI5/MM2 N_XADDER1/XI3/XI3/NET7_XADDER1/XI3/XI3/XI5/MM0_d
+ N_XADDER1/XI3/XI3/NET9_XADDER1/XI3/XI3/XI5/MM2_g
+ N_VDD!_XADDER1/XI3/XI3/XI5/MM2_s N_VDD!_XADDER1/XI3/XI6/MM1_b PMOS_VTG L=5e-08
+ W=1.44e-06 AD=2.016e-13 AS=1.58175e-13 PD=3.16e-06 PS=3.105e-06
mXADDER1/XI3/XI3/XI8/MM0 N_XADDER1/XI3/XI3/NET9_XADDER1/XI3/XI3/XI8/MM0_d
+ N_NET33_XADDER1/XI3/XI3/XI8/MM0_g N_GND!_XADDER1/XI3/XI3/XI8/MM0_s
+ N_GND!_XADDER1/XI3/XI6/MM0_b NMOS_VTG L=5e-08 W=1.44e-06 AD=1.161e-13
+ AS=1.0845e-13 PD=3.36e-06 PS=3.19e-06
mXADDER1/XI3/XI3/XI8/MM1 N_XADDER1/XI3/XI3/NET9_XADDER1/XI3/XI3/XI8/MM1_d
+ N_NET33_XADDER1/XI3/XI3/XI8/MM1_g N_VDD!_XADDER1/XI3/XI3/XI8/MM1_s
+ N_VDD!_XADDER1/XI3/XI6/MM1_b PMOS_VTG L=5e-08 W=1.96e-06 AD=1.6015e-13
+ AS=1.57e-13 PD=4.57e-06 PS=4.5e-06
mXOUTPUT1/XI1/XI7/MM1 N_NET036_XOUTPUT1/XI1/XI7/MM1_d
+ N_XOUTPUT1/XI1/NET7_XOUTPUT1/XI1/XI7/MM1_g XOUTPUT1/XI1/XI7/NET17
+ N_GND!_XOUTPUT1/XI0/XI7/MM1_b NMOS_VTG L=5e-08 W=1.63e-06 AD=1.834e-13
+ AS=2.282e-13 PD=3.49e-06 PS=3.54e-06
mXOUTPUT1/XI1/XI7/MM3 XOUTPUT1/XI1/XI7/NET17
+ N_XOUTPUT1/XI1/NET4_XOUTPUT1/XI1/XI7/MM3_g N_GND!_XOUTPUT1/XI1/XI7/MM3_s
+ N_GND!_XOUTPUT1/XI0/XI7/MM1_b NMOS_VTG L=5e-08 W=1.63e-06 AD=2.282e-13
+ AS=1.77425e-13 PD=3.54e-06 PS=3.485e-06
mXOUTPUT1/XI1/XI7/MM0 N_NET036_XOUTPUT1/XI1/XI7/MM0_d
+ N_XOUTPUT1/XI1/NET7_XOUTPUT1/XI1/XI7/MM0_g N_VDD!_XOUTPUT1/XI1/XI7/MM0_s
+ N_VDD!_XOUTPUT1/XI0/XI7/MM0_b PMOS_VTG L=5e-08 W=1.44e-06 AD=2.016e-13
+ AS=1.512e-13 PD=3.16e-06 PS=3.11e-06
mXOUTPUT1/XI1/XI7/MM2 N_NET036_XOUTPUT1/XI1/XI7/MM0_d
+ N_XOUTPUT1/XI1/NET4_XOUTPUT1/XI1/XI7/MM2_g N_VDD!_XOUTPUT1/XI1/XI7/MM2_s
+ N_VDD!_XOUTPUT1/XI0/XI7/MM0_b PMOS_VTG L=5e-08 W=1.44e-06 AD=2.016e-13
+ AS=1.58175e-13 PD=3.16e-06 PS=3.105e-06
mXOUTPUT1/XI1/XI6/MM3 N_XOUTPUT1/XI1/NET4_XOUTPUT1/XI1/XI6/MM3_d
+ N_NET72_XOUTPUT1/XI1/XI6/MM3_g XOUTPUT1/XI1/XI6/NET17
+ N_GND!_XOUTPUT1/XI0/XI7/MM1_b NMOS_VTG L=5e-08 W=1.63e-06 AD=1.834e-13
+ AS=2.282e-13 PD=3.49e-06 PS=3.54e-06
mXOUTPUT1/XI1/XI6/MM1 XOUTPUT1/XI1/XI6/NET17 N_NET69_XOUTPUT1/XI1/XI6/MM1_g
+ N_GND!_XOUTPUT1/XI1/XI6/MM1_s N_GND!_XOUTPUT1/XI0/XI7/MM1_b NMOS_VTG L=5e-08
+ W=1.63e-06 AD=2.282e-13 AS=1.77425e-13 PD=3.54e-06 PS=3.485e-06
mXOUTPUT1/XI1/XI6/MM2 N_XOUTPUT1/XI1/NET4_XOUTPUT1/XI1/XI6/MM2_d
+ N_NET72_XOUTPUT1/XI1/XI6/MM2_g N_VDD!_XOUTPUT1/XI1/XI6/MM2_s
+ N_VDD!_XOUTPUT1/XI0/XI7/MM0_b PMOS_VTG L=5e-08 W=1.44e-06 AD=2.016e-13
+ AS=1.512e-13 PD=3.16e-06 PS=3.11e-06