* File: BIT_SELECT.pex.netlist.pex
* Created: Sat Jun  8 14:00:45 2013
* Program "Calibre xRC"
* Version "v2011.4_35.27"
* Nominal Temperature: 27C
* Circuit Temperature: 27C
* 
.subckt PM_BIT_SELECT%XI1/XI11/NET10 19 21 22 23 25 27 31 35 39 49 51 53 57 59
+ 61 63 64 65 67 68 69 71 84 90 98 99 100 103 107 109 111 115 118 119 124
c173 124 0 0.0079234f
c174 119 0 9.48716e-19
c175 118 0 6.72932e-19
c176 115 0 0.00373423f
c177 111 0 0.0221661f
c178 109 0 0.00720241f
c179 107 0 0.00530127f
c180 103 0 0.0052407f
c181 100 0 0.0103241f
c182 98 0 0.00289223f
c183 90 0 0.00451998f
c184 84 0 0.0358946f
c185 71 0 0.0293372f
c186 69 0 0.00704339f
c187 68 0 0.00176883f
c188 67 0 0.00176883f
c189 65 0 0.00631801f
c190 64 0 6.06869e-19
c191 63 0 0.00176786f
c192 61 0 0.0111176f
c193 59 0 0.00677183f
c194 57 0 0.00679102f
c195 53 0 0.00574177f
c196 51 0 0.00996224f
c197 49 0 0.00868821f
c198 39 0 0.00345844f
c199 35 0 0.00698687f
c200 31 0 0.00327741f
c201 27 0 0.00353803f
c202 25 0 0.00334868f
c203 23 0 0.00316159f
c204 21 0 0.00320518f
c205 19 0 0.00315023f
r206 115 124 89.3538
r207 113 115 0.774615
r208 112 120 0.0223169
r209 111 113 0.212317
r210 111 112 3.06923
r211 109 123 4.7687
r212 107 109 89.3538
r213 106 118 0.0755375
r214 106 107 1.09615
r215 104 119 0.160909
r216 102 119 0.160909
r217 102 103 1.54923
r218 101 118 0.0755375
r219 101 103 0.0730769
r220 100 118 0.116033
r221 98 119 0.0418175
r222 98 99 0.219231
r223 97 120 0.613846
r224 96 120 0.643077
r225 90 118 0.116033
r226 90 99 0.219231
r227 90 103 0.19902
r228 86 124 4.7687
r229 84 123 46.02
r230 71 86 31.98
r231 66 97 0.160909
r232 65 96 0.160909
r233 64 92 0.160909
r234 61 69 0.160909
r235 60 68 0.160909
r236 60 61 2.07538
r237 59 68 0.160909
r238 58 67 0.160909
r239 58 59 1.25692
r240 57 67 0.160909
r241 56 66 0.160909
r242 56 57 1.25692
r243 53 92 1.25692
r244 53 65 0.160909
r245 51 104 2.25077
r246 51 64 0.160909
r247 50 100 2.22154
r248 50 63 0.160909
r249 49 63 0.160909
r250 48 49 1.60769
r251 39 63 0.0418175
r252 39 99 0.219231
r253 35 48 0.212317
r254 35 99 0.219231
r255 31 69 0.0418175
r256 27 68 0.0418175
r257 25 67 0.0418175
r258 23 66 0.0418175
r259 22 23 0.233846
r260 22 25 0.233846
r261 22 27 0.233846
r262 22 31 0.233846
r263 21 65 0.0418175
r264 21 22 0.233846
r265 19 64 0.0418175
r266 19 22 0.233846
.ends

.subckt PM_BIT_SELECT%XI1/XI12/NET10 19 21 22 23 25 27 31 35 39 49 51 53 57 59
+ 61 63 64 65 67 68 69 71 84 90 98 99 100 103 107 109 111 115 118 119 124
c173 124 0 0.0079234f
c174 119 0 9.48716e-19
c175 118 0 6.72932e-19
c176 115 0 0.00373423f
c177 111 0 0.0221661f
c178 109 0 0.00720241f
c179 107 0 0.00530127f
c180 103 0 0.0052407f
c181 100 0 0.0103241f
c182 98 0 0.00289223f
c183 90 0 0.00451998f
c184 84 0 0.0358946f
c185 71 0 0.0293372f
c186 69 0 0.00704339f
c187 68 0 0.00176883f
c188 67 0 0.00176883f
c189 65 0 0.00631801f
c190 64 0 6.06869e-19
c191 63 0 0.00176786f
c192 61 0 0.0111176f
c193 59 0 0.00677183f
c194 57 0 0.00679102f
c195 53 0 0.00574177f
c196 51 0 0.00996224f
c197 49 0 0.00868821f
c198 39 0 0.00345844f
c199 35 0 0.00698677f
c200 31 0 0.00327741f
c201 27 0 0.00353803f
c202 25 0 0.00334868f
c203 23 0 0.00316159f
c204 21 0 0.00320518f
c205 19 0 0.00315023f
r206 115 124 89.3538
r207 113 115 0.774615
r208 112 120 0.0223169
r209 111 113 0.212317
r210 111 112 3.06923
r211 109 123 4.7687
r212 107 109 89.3538
r213 106 118 0.0755375
r214 106 107 1.09615
r215 104 119 0.160909
r216 102 119 0.160909
r217 102 103 1.54923
r218 101 118 0.0755375
r219 101 103 0.0730769
r220 100 118 0.116033
r221 98 119 0.0418175
r222 98 99 0.219231
r223 97 120 0.613846
r224 96 120 0.643077
r225 90 118 0.116033
r226 90 99 0.219231
r227 90 103 0.19902
r228 86 124 4.7687
r229 84 123 46.02
r230 71 86 31.98
r231 66 97 0.160909
r232 65 96 0.160909
r233 64 92 0.160909
r234 61 69 0.160909
r235 60 68 0.160909
r236 60 61 2.07538
r237 59 68 0.160909
r238 58 67 0.160909
r239 58 59 1.25692
r240 57 67 0.160909
r241 56 66 0.160909
r242 56 57 1.25692
r243 53 92 1.25692
r244 53 65 0.160909
r245 51 104 2.25077
r246 51 64 0.160909
r247 50 100 2.22154
r248 50 63 0.160909
r249 49 63 0.160909
r250 48 49 1.60769
r251 39 63 0.0418175
r252 39 99 0.219231
r253 35 48 0.212317
r254 35 99 0.219231
r255 31 69 0.0418175
r256 27 68 0.0418175
r257 25 67 0.0418175
r258 23 66 0.0418175
r259 22 23 0.233846
r260 22 25 0.233846
r261 22 27 0.233846
r262 22 31 0.233846
r263 21 65 0.0418175
r264 21 22 0.233846
r265 19 64 0.0418175
r266 19 22 0.233846
.ends

.subckt PM_BIT_SELECT%XI1/XI13/NET10 19 21 22 23 25 27 31 35 39 49 51 53 57 59
+ 61 63 64 65 67 68 69 71 84 90 98 99 100 103 107 109 111 115 118 119 124
c173 124 0 0.0079234f
c174 119 0 9.48716e-19
c175 118 0 6.72932e-19
c176 115 0 0.00373539f
c177 111 0 0.0221661f
c178 109 0 0.00720241f
c179 107 0 0.00530127f
c180 103 0 0.0052407f
c181 100 0 0.0103241f
c182 98 0 0.00289223f
c183 90 0 0.00451998f
c184 84 0 0.0358946f
c185 71 0 0.0293372f
c186 69 0 0.00702728f
c187 68 0 0.00176883f
c188 67 0 0.00176883f
c189 65 0 0.00631801f
c190 64 0 6.06869e-19
c191 63 0 0.00176786f
c192 61 0 0.0111205f
c193 59 0 0.00677183f
c194 57 0 0.00679102f
c195 53 0 0.00574177f
c196 51 0 0.00996224f
c197 49 0 0.00868821f
c198 39 0 0.00345844f
c199 35 0 0.00698696f
c200 31 0 0.00327741f
c201 27 0 0.00353803f
c202 25 0 0.00334868f
c203 23 0 0.00316159f
c204 21 0 0.00320518f
c205 19 0 0.00315481f
r206 115 124 89.3538
r207 113 115 0.774615
r208 112 120 0.0223169
r209 111 113 0.212317
r210 111 112 3.06923
r211 109 123 4.7687
r212 107 109 89.3538
r213 106 118 0.0755375
r214 106 107 1.09615
r215 104 119 0.160909
r216 102 119 0.160909
r217 102 103 1.54923
r218 101 118 0.0755375
r219 101 103 0.0730769
r220 100 118 0.116033
r221 98 119 0.0418175
r222 98 99 0.219231
r223 97 120 0.613846
r224 96 120 0.643077
r225 90 118 0.116033
r226 90 99 0.219231
r227 90 103 0.19902
r228 86 124 4.7687
r229 84 123 46.02
r230 71 86 31.98
r231 66 97 0.160909
r232 65 96 0.160909
r233 64 92 0.160909
r234 61 69 0.160909
r235 60 68 0.160909
r236 60 61 2.07538
r237 59 68 0.160909
r238 58 67 0.160909
r239 58 59 1.25692
r240 57 67 0.160909
r241 56 66 0.160909
r242 56 57 1.25692
r243 53 92 1.25692
r244 53 65 0.160909
r245 51 104 2.25077
r246 51 64 0.160909
r247 50 100 2.22154
r248 50 63 0.160909
r249 49 63 0.160909
r250 48 49 1.60769
r251 39 63 0.0418175
r252 39 99 0.219231
r253 35 48 0.212317
r254 35 99 0.219231
r255 31 69 0.0418175
r256 27 68 0.0418175
r257 25 67 0.0418175
r258 23 66 0.0418175
r259 22 23 0.233846
r260 22 25 0.233846
r261 22 27 0.233846
r262 22 31 0.233846
r263 21 65 0.0418175
r264 21 22 0.233846
r265 19 64 0.0418175
r266 19 22 0.233846
.ends

.subckt PM_BIT_SELECT%XI1/XI14/NET10 19 21 22 23 25 27 31 35 39 49 51 53 57 59
+ 61 63 64 65 67 68 69 71 84 90 98 99 100 103 107 109 111 115 118 119 124
c175 124 0 0.0079234f
c176 119 0 9.48716e-19
c177 118 0 6.72932e-19
c178 115 0 0.00373423f
c179 111 0 0.0221661f
c180 109 0 0.00720241f
c181 107 0 0.00531288f
c182 103 0 0.0052407f
c183 100 0 0.0103241f
c184 98 0 0.00289223f
c185 90 0 0.00451998f
c186 84 0 0.0358946f
c187 71 0 0.0293372f
c188 69 0 0.00704339f
c189 68 0 0.00176883f
c190 67 0 0.00176883f
c191 65 0 0.00631801f
c192 64 0 6.06869e-19
c193 63 0 0.00176786f
c194 61 0 0.0111176f
c195 59 0 0.00677183f
c196 57 0 0.00679102f
c197 53 0 0.00574177f
c198 51 0 0.00996224f
c199 49 0 0.00864243f
c200 39 0 0.00334331f
c201 35 0 0.00633184f
c202 31 0 0.00327741f
c203 27 0 0.00353803f
c204 25 0 0.00334868f
c205 23 0 0.00316159f
c206 21 0 0.00320518f
c207 19 0 0.00315023f
r208 115 124 89.3538
r209 113 115 0.774615
r210 112 120 0.0223169
r211 111 113 0.212317
r212 111 112 3.06923
r213 109 123 4.7687
r214 107 109 89.3538
r215 106 118 0.0755375
r216 106 107 1.09615
r217 104 119 0.160909
r218 102 119 0.160909
r219 102 103 1.54923
r220 101 118 0.0755375
r221 101 103 0.0730769
r222 100 118 0.116033
r223 98 119 0.0418175
r224 98 99 0.219231
r225 97 120 0.613846
r226 96 120 0.643077
r227 90 118 0.116033
r228 90 99 0.219231
r229 90 103 0.19902
r230 86 124 4.7687
r231 84 123 46.02
r232 71 86 31.98
r233 66 97 0.160909
r234 65 96 0.160909
r235 64 92 0.160909
r236 61 69 0.160909
r237 60 68 0.160909
r238 60 61 2.07538
r239 59 68 0.160909
r240 58 67 0.160909
r241 58 59 1.25692
r242 57 67 0.160909
r243 56 66 0.160909
r244 56 57 1.25692
r245 53 92 1.25692
r246 53 65 0.160909
r247 51 104 2.25077
r248 51 64 0.160909
r249 50 100 2.22154
r250 50 63 0.160909
r251 49 63 0.160909
r252 48 49 1.60769
r253 39 63 0.0418175
r254 39 99 0.219231
r255 35 48 0.212317
r256 35 99 0.219231
r257 31 69 0.0418175
r258 27 68 0.0418175
r259 25 67 0.0418175
r260 23 66 0.0418175
r261 22 23 0.233846
r262 22 25 0.233846
r263 22 27 0.233846
r264 22 31 0.233846
r265 21 65 0.0418175
r266 21 22 0.233846
r267 19 64 0.0418175
r268 19 22 0.233846
.ends

.subckt PM_BIT_SELECT%XI1/XI10/NET10 19 21 22 23 25 27 31 35 39 49 51 53 57 59
+ 61 64 65 69 71 84 90 98 99 100 103 107 109 111 115 118 119 124
c137 124 0 0.0079234f
c138 119 0 9.48716e-19
c139 118 0 6.00644e-19
c140 115 0 0.00483094f
c141 111 0 0.0245806f
c142 109 0 0.00720241f
c143 107 0 0.00530127f
c144 103 0 0.00419984f
c145 100 0 0.0108381f
c146 98 0 0.00298318f
c147 90 0 0.0054607f
c148 84 0 0.0358946f
c149 71 0 0.0293372f
c150 69 0 0.0107344f
c151 68 0 0.00209364f
c152 67 0 0.00209364f
c153 65 0 0.00671897f
c154 64 0 6.06869e-19
c155 63 0 0.00209184f
c156 61 0 0.015705f
c157 59 0 0.00944383f
c158 57 0 0.00834271f
c159 53 0 0.00614748f
c160 51 0 0.0100631f
c161 49 0 0.0100571f
c162 39 0 0.00340142f
c163 35 0 0.00786991f
c164 31 0 0.00343145f
c165 27 0 0.00325239f
c166 25 0 0.00295047f
c167 23 0 0.00294576f
c168 21 0 0.0028989f
c169 19 0 0.00303132f
r170 115 124 89.3538
r171 113 115 0.774615
r172 112 120 0.0223169
r173 111 113 0.212317
r174 111 112 3.06923
r175 109 123 4.7687
r176 107 109 89.3538
r177 106 118 0.0755375
r178 106 107 1.09615
r179 104 119 0.160909
r180 102 119 0.160909
r181 102 103 1.54923
r182 101 118 0.0755375
r183 101 103 0.0730769
r184 100 118 0.116033
r185 98 119 0.0418175
r186 98 99 0.219231
r187 97 120 0.613846
r188 96 120 0.643077
r189 90 118 0.116033
r190 90 99 0.219231
r191 90 103 0.19902
r192 86 124 4.7687
r193 84 123 46.02
r194 71 86 31.98
r195 66 97 0.160909
r196 65 96 0.160909
r197 64 92 0.160909
r198 61 69 0.160909
r199 60 68 0.160909
r200 60 61 2.07538
r201 59 68 0.160909
r202 58 67 0.160909
r203 58 59 1.25692
r204 57 67 0.160909
r205 56 66 0.160909
r206 56 57 1.25692
r207 53 92 1.25692
r208 53 65 0.160909
r209 51 104 2.25077
r210 51 64 0.160909
r211 50 100 2.22154
r212 50 63 0.160909
r213 49 63 0.160909
r214 48 49 1.60769
r215 39 63 0.0418175
r216 39 99 0.219231
r217 35 48 0.212317
r218 35 99 0.219231
r219 31 69 0.0418175
r220 27 68 0.0418175
r221 25 67 0.0418175
r222 23 66 0.0418175
r223 22 23 0.233846
r224 22 25 0.233846
r225 22 27 0.233846
r226 22 31 0.233846
r227 21 65 0.0418175
r228 21 22 0.233846
r229 19 64 0.0418175
r230 19 22 0.233846
.ends

.subckt PM_BIT_SELECT%XI3/XI0/XI0/NET9 6 13 20 21 23 25 26
c24 26 0 0.00108874f
c25 25 0 0.0158349f
c26 23 0 0.00734842f
c27 21 0 0.0156162f
c28 20 0 0.00175348f
c29 13 0 0.0307271f
c30 6 0 0.0148013f
r31 25 26 0.553316
r32 23 30 4.7687
r33 21 23 89.3538
r34 20 21 3.52231
r35 17 25 0.340516
r36 15 20 0.212317
r37 15 26 0.38
r38 13 30 35.88
r39 6 17 2.49923
.ends

.subckt PM_BIT_SELECT%XI3/XI3/XI5/NET9 6 13 20 21 23 25 26
c30 26 0 0.00105962f
c31 25 0 0.0128254f
c32 23 0 0.00734818f
c33 21 0 0.0153745f
c34 20 0 0.00175348f
c35 13 0 0.0307419f
c36 6 0 0.00742772f
r37 25 26 0.553316
r38 23 30 4.7687
r39 21 23 89.3538
r40 20 21 3.52231
r41 17 25 0.340516
r42 15 20 0.212317
r43 15 26 0.38
r44 13 30 35.88
r45 6 17 2.49923
.ends

.subckt PM_BIT_SELECT%XI3/XI3/XI0/NET9 6 13 20 21 23 25 26
c35 26 0 8.30241e-19
c36 25 0 0.0137439f
c37 23 0 0.00667558f
c38 21 0 0.01574f
c39 20 0 0.00159139f
c40 13 0 0.0306247f
c41 6 0 0.0116916f
r42 25 26 0.553316
r43 23 30 4.7687
r44 21 23 89.3538
r45 20 21 3.52231
r46 17 25 0.340516
r47 15 20 0.212317
r48 15 26 0.38
r49 13 30 35.88
r50 6 17 2.49923
.ends

.subckt PM_BIT_SELECT%XI3/XI1/XI5/NET9 6 13 20 21 23 25 26
c30 26 0 0.00105962f
c31 25 0 0.0128254f
c32 23 0 0.00734818f
c33 21 0 0.0153745f
c34 20 0 0.00175348f
c35 13 0 0.0307419f
c36 6 0 0.00742772f
r37 25 26 0.553316
r38 23 30 4.7687
r39 21 23 89.3538
r40 20 21 3.52231
r41 17 25 0.340516
r42 15 20 0.212317
r43 15 26 0.38
r44 13 30 35.88
r45 6 17 2.49923
.ends

.subckt PM_BIT_SELECT%XI3/XI1/XI0/NET9 6 13 20 21 23 25 26
c35 26 0 8.30241e-19
c36 25 0 0.0137439f
c37 23 0 0.00667558f
c38 21 0 0.01574f
c39 20 0 0.00159139f
c40 13 0 0.0306247f
c41 6 0 0.0116916f
r42 25 26 0.553316
r43 23 30 4.7687
r44 21 23 89.3538
r45 20 21 3.52231
r46 17 25 0.340516
r47 15 20 0.212317
r48 15 26 0.38
r49 13 30 35.88
r50 6 17 2.49923
.ends

.subckt PM_BIT_SELECT%XI3/XI2/XI5/NET9 6 13 20 21 23 25 26
c30 26 0 0.00105962f
c31 25 0 0.0128254f
c32 23 0 0.00734818f
c33 21 0 0.0153745f
c34 20 0 0.00175348f
c35 13 0 0.0307419f
c36 6 0 0.00742772f
r37 25 26 0.553316
r38 23 30 4.7687
r39 21 23 89.3538
r40 20 21 3.52231
r41 17 25 0.340516
r42 15 20 0.212317
r43 15 26 0.38
r44 13 30 35.88
r45 6 17 2.49923
.ends

.subckt PM_BIT_SELECT%XI3/XI2/XI0/NET9 6 13 20 21 23 25 26
c35 26 0 8.30241e-19
c36 25 0 0.0137439f
c37 23 0 0.00667558f
c38 21 0 0.01574f
c39 20 0 0.00159139f
c40 13 0 0.0306247f
c41 6 0 0.0116916f
r42 25 26 0.553316
r43 23 30 4.7687
r44 21 23 89.3538
r45 20 21 3.52231
r46 17 25 0.340516
r47 15 20 0.212317
r48 15 26 0.38
r49 13 30 35.88
r50 6 17 2.49923
.ends

.subckt PM_BIT_SELECT%XI1/XI4/XI5/NET9 6 13 20 21 23 25 26
c29 26 0 0.00108874f
c30 25 0 0.0128352f
c31 23 0 0.00734818f
c32 21 0 0.0155993f
c33 20 0 0.00175348f
c34 13 0 0.0307419f
c35 6 0 0.00750657f
r36 25 26 0.553316
r37 23 30 4.7687
r38 21 23 89.3538
r39 20 21 3.52231
r40 17 25 0.340516
r41 15 20 0.212317
r42 15 26 0.38
r43 13 30 35.88
r44 6 17 2.49923
.ends

.subckt PM_BIT_SELECT%XI1/XI4/XI0/NET9 6 13 20 21 23 25 26
c43 26 0 8.49193e-19
c44 25 0 0.0130163f
c45 23 0 0.00665969f
c46 21 0 0.0161878f
c47 20 0 0.00161717f
c48 13 0 0.0306247f
c49 6 0 0.0107243f
r50 25 26 0.553316
r51 23 30 4.7687
r52 21 23 89.3538
r53 20 21 3.52231
r54 17 25 0.340516
r55 15 20 0.212317
r56 15 26 0.38
r57 13 30 35.88
r58 6 17 2.49923
.ends

.subckt PM_BIT_SELECT%XI1/XI5/XI5/NET9 6 13 20 21 23 25 26
c33 26 0 8.34965e-19
c34 25 0 0.0115648f
c35 23 0 0.0073397f
c36 21 0 0.0162023f
c37 20 0 0.00173174f
c38 13 0 0.0307419f
c39 6 0 0.00742772f
r40 25 26 0.553316
r41 23 30 4.7687
r42 21 23 89.3538
r43 20 21 3.52231
r44 17 25 0.340516
r45 15 20 0.212317
r46 15 26 0.38
r47 13 30 35.88
r48 6 17 2.49923
.ends

.subckt PM_BIT_SELECT%XI1/XI5/XI0/NET9 6 13 20 21 23 25 26
c39 26 0 8.30241e-19
c40 25 0 0.0120021f
c41 23 0 0.00675065f
c42 21 0 0.0156452f
c43 20 0 0.00159139f
c44 13 0 0.0306247f
c45 6 0 0.00842248f
r46 25 26 0.553316
r47 23 30 4.7687
r48 21 23 89.3538
r49 20 21 3.52231
r50 17 25 0.340516
r51 15 20 0.212317
r52 15 26 0.38
r53 13 30 35.88
r54 6 17 2.49923
.ends

.subckt PM_BIT_SELECT%XI1/XI0/XI5/NET9 6 13 20 21 23 25
c32 26 0 0.00108874f
c33 25 0 0.0124032f
c34 23 0 0.00734818f
c35 21 0 0.0156479f
c36 20 0 0.00175348f
c37 13 0 0.0307419f
c38 6 0 0.00740523f
r39 25 26 0.553316
r40 23 30 4.7687
r41 21 23 89.3538
r42 20 21 3.52231
r43 17 25 0.340516
r44 15 20 0.212317
r45 15 26 0.38
r46 13 30 35.88
r47 6 17 2.49923
.ends

.subckt PM_BIT_SELECT%XI1/XI0/XI0/NET9 6 13 20 21 23 25
c41 26 0 0.00100484f
c42 25 0 0.0128404f
c43 23 0 0.00675065f
c44 21 0 0.0157037f
c45 20 0 0.00181755f
c46 13 0 0.0306247f
c47 6 0 0.00935688f
r48 25 26 0.553316
r49 23 30 4.7687
r50 21 23 89.3538
r51 20 21 3.52231
r52 17 25 0.340516
r53 15 20 0.212317
r54 15 26 0.38
r55 13 30 35.88
r56 6 17 2.49923
.ends

.subckt PM_BIT_SELECT%XI1/XI1/XI5/NET9 6 13 20 21 23 25 26
c34 26 0 9.99361e-19
c35 25 0 0.0124032f
c36 23 0 0.0073397f
c37 21 0 0.0162023f
c38 20 0 0.00173174f
c39 13 0 0.0307419f
c40 6 0 0.00742772f
r41 25 26 0.553316
r42 23 30 4.7687
r43 21 23 89.3538
r44 20 21 3.52231
r45 17 25 0.340516
r46 15 20 0.212317
r47 15 26 0.38
r48 13 30 35.88
r49 6 17 2.49923
.ends

.subckt PM_BIT_SELECT%XI1/XI1/XI0/NET9 6 13 20 21 23 25
c40 26 0 8.30241e-19
c41 25 0 0.0128404f
c42 23 0 0.00675065f
c43 21 0 0.0156452f
c44 20 0 0.00159139f
c45 13 0 0.0306247f
c46 6 0 0.0113248f
r47 25 26 0.553316
r48 23 30 4.7687
r49 21 23 89.3538
r50 20 21 3.52231
r51 17 25 0.340516
r52 15 20 0.212317
r53 15 26 0.38
r54 13 30 35.88
r55 6 17 2.49923
.ends

.subckt PM_BIT_SELECT%XI1/XI6/XI5/NET9 6 13 20 21 23 25 26
c33 26 0 8.34965e-19
c34 25 0 0.0115648f
c35 23 0 0.0073397f
c36 21 0 0.0162023f
c37 20 0 0.00173174f
c38 13 0 0.0307419f
c39 6 0 0.00742772f
r40 25 26 0.553316
r41 23 30 4.7687
r42 21 23 89.3538
r43 20 21 3.52231
r44 17 25 0.340516
r45 15 20 0.212317
r46 15 26 0.38
r47 13 30 35.88
r48 6 17 2.49923
.ends

.subckt PM_BIT_SELECT%XI1/XI6/XI0/NET9 6 13 20 21 23 25 26
c39 26 0 8.30241e-19
c40 25 0 0.0120021f
c41 23 0 0.00675065f
c42 21 0 0.0156452f
c43 20 0 0.00159139f
c44 13 0 0.0306247f
c45 6 0 0.00842248f
r46 25 26 0.553316
r47 23 30 4.7687
r48 21 23 89.3538
r49 20 21 3.52231
r50 17 25 0.340516
r51 15 20 0.212317
r52 15 26 0.38
r53 13 30 35.88
r54 6 17 2.49923
.ends

.subckt PM_BIT_SELECT%XI1/XI7/XI5/NET9 6 13 20 21 23 25 26
c33 26 0 8.3473e-19
c34 25 0 0.0115636f
c35 23 0 0.0073397f
c36 21 0 0.0162023f
c37 20 0 0.00173174f
c38 13 0 0.0307419f
c39 6 0 0.00742772f
r40 25 26 0.553316
r41 23 30 4.7687
r42 21 23 89.3538
r43 20 21 3.52231
r44 17 25 0.340516
r45 15 20 0.212317
r46 15 26 0.38
r47 13 30 35.88
r48 6 17 2.49923
.ends

.subckt PM_BIT_SELECT%XI1/XI7/XI0/NET9 6 13 20 21 23 25 26
c39 26 0 8.30241e-19
c40 25 0 0.0120009f
c41 23 0 0.00675065f
c42 21 0 0.0156452f
c43 20 0 0.00159139f
c44 13 0 0.0306247f
c45 6 0 0.00841838f
r46 25 26 0.553316
r47 23 30 4.7687
r48 21 23 89.3538
r49 20 21 3.52231
r50 17 25 0.340516
r51 15 20 0.212317
r52 15 26 0.38
r53 13 30 35.88
r54 6 17 2.49923
.ends

.subckt PM_BIT_SELECT%XI1/XI2/XI5/NET9 6 13 20 21 23 25 26
c35 26 0 9.99361e-19
c36 25 0 0.0124032f
c37 23 0 0.0073397f
c38 21 0 0.0161649f
c39 20 0 0.00173174f
c40 13 0 0.0307419f
c41 6 0 0.00742772f
r42 25 26 0.553316
r43 23 30 4.7687
r44 21 23 89.3538
r45 20 21 3.52231
r46 17 25 0.340516
r47 15 20 0.212317
r48 15 26 0.38
r49 13 30 35.88
r50 6 17 2.49923
.ends

.subckt PM_BIT_SELECT%XI1/XI2/XI0/NET9 6 13 20 21 23 25
c40 26 0 8.30241e-19
c41 25 0 0.0128415f
c42 23 0 0.00675086f
c43 21 0 0.0155969f
c44 20 0 0.00159139f
c45 13 0 0.0306247f
c46 6 0 0.0113253f
r47 25 26 0.553316
r48 23 30 4.7687
r49 21 23 89.3538
r50 20 21 3.52231
r51 17 25 0.340516
r52 15 20 0.212317
r53 15 26 0.38
r54 13 30 35.88
r55 6 17 2.49923
.ends

.subckt PM_BIT_SELECT%XI1/XI3/XI5/NET9 6 13 20 21 23 25 26
c34 26 0 9.99361e-19
c35 25 0 0.0124032f
c36 23 0 0.0073397f
c37 21 0 0.0162023f
c38 20 0 0.00173174f
c39 13 0 0.0307419f
c40 6 0 0.00742772f
r41 25 26 0.553316
r42 23 30 4.7687
r43 21 23 89.3538
r44 20 21 3.52231
r45 17 25 0.340516
r46 15 20 0.212317
r47 15 26 0.38
r48 13 30 35.88
r49 6 17 2.49923
.ends

.subckt PM_BIT_SELECT%XI1/XI3/XI0/NET9 6 13 20 21 23 25
c40 26 0 8.30241e-19
c41 25 0 0.0128404f
c42 23 0 0.00675065f
c43 21 0 0.0156452f
c44 20 0 0.00159139f
c45 13 0 0.0306247f
c46 6 0 0.0113248f
r47 25 26 0.553316
r48 23 30 4.7687
r49 21 23 89.3538
r50 20 21 3.52231
r51 17 25 0.340516
r52 15 20 0.212317
r53 15 26 0.38
r54 13 30 35.88
r55 6 17 2.49923
.ends

.subckt PM_BIT_SELECT%XI3/XI0/XI2/NET8 1 2 5 8 10 12 15 18 19 25 27 30 31 34
c88 34 0 0.00496368f
c89 31 0 0.00134024f
c90 30 0 0.00680381f
c91 27 0 0.0155819f
c92 25 0 0.00806849f
c93 19 0 0.00416501f
c94 18 0 0.00837535f
c95 15 0 0.031263f
c96 12 0 0.0398398f
c97 10 0 0.105207f
c98 8 0 0.00618667f
c99 1 0 0.141256f
r100 32 34 0.57
r101 29 34 0.0223169
r102 29 30 1.78308
r103 26 31 0.0418175
r104 26 27 2.39692
r105 25 32 0.0223169
r106 24 31 0.160909
r107 24 25 1.56385
r108 20 31 0.160909
r109 18 30 0.212317
r110 18 19 1.31538
r111 14 19 0.212317
r112 14 15 3.21538
r113 12 20 2.23323
r114 8 10 4.7687
r115 8 27 89.3538
r116 5 10 120.12
r117 1 8 4.7687
r118 1 2 160.68
.ends

.subckt PM_BIT_SELECT%XI3/XI3/XI8/NET8 1 2 5 8 10 12 15 18 19 25 27 30 31 34
c95 34 0 0.00399198f
c96 31 0 0.00115229f
c97 30 0 0.00514008f
c98 27 0 0.015482f
c99 25 0 0.00868332f
c100 19 0 0.0032751f
c101 18 0 0.00833079f
c102 15 0 0.0226052f
c103 12 0 0.0416346f
c104 10 0 0.104993f
c105 8 0 0.0062357f
c106 1 0 0.138475f
r107 32 34 0.57
r108 29 34 0.0223169
r109 29 30 1.78308
r110 26 31 0.0418175
r111 26 27 2.39692
r112 25 32 0.0223169
r113 24 31 0.160909
r114 24 25 1.56385
r115 20 31 0.160909
r116 18 30 0.212317
r117 18 19 1.31538
r118 14 19 0.212317
r119 14 15 3.21538
r120 12 20 2.23323
r121 8 10 4.7687
r122 8 27 89.3538
r123 5 10 120.12
r124 1 8 4.7687
r125 1 2 160.68
.ends

.subckt PM_BIT_SELECT%XI3/XI3/XI9/NET8 1 2 5 8 10 12 15 18 19 25 27 30 31 34
c91 34 0 0.00434694f
c92 31 0 0.00102625f
c93 30 0 0.00594864f
c94 27 0 0.012819f
c95 25 0 0.00910249f
c96 19 0 0.00369397f
c97 18 0 0.00884103f
c98 15 0 0.0230632f
c99 12 0 0.0405378f
c100 10 0 0.105132f
c101 8 0 0.00565301f
c102 1 0 0.140855f
r103 32 34 0.57
r104 29 34 0.0223169
r105 29 30 1.78308
r106 26 31 0.0418175
r107 26 27 2.39692
r108 25 32 0.0223169
r109 24 31 0.160909
r110 24 25 1.56385
r111 20 31 0.160909
r112 18 30 0.212317
r113 18 19 1.31538
r114 14 19 0.212317
r115 14 15 3.21538
r116 12 20 2.23323
r117 8 10 4.7687
r118 8 27 89.3538
r119 5 10 120.12
r120 1 8 4.7687
r121 1 2 160.68
.ends

.subckt PM_BIT_SELECT%XI3/XI1/XI8/NET8 1 2 5 8 10 12 15 18 19 25 27 30 31 34
c95 34 0 0.00399198f
c96 31 0 0.00115229f
c97 30 0 0.00514008f
c98 27 0 0.015482f
c99 25 0 0.00868332f
c100 19 0 0.0032751f
c101 18 0 0.00833079f
c102 15 0 0.0226052f
c103 12 0 0.0416346f
c104 10 0 0.104993f
c105 8 0 0.0062357f
c106 1 0 0.138475f
r107 32 34 0.57
r108 29 34 0.0223169
r109 29 30 1.78308
r110 26 31 0.0418175
r111 26 27 2.39692
r112 25 32 0.0223169
r113 24 31 0.160909
r114 24 25 1.56385
r115 20 31 0.160909
r116 18 30 0.212317
r117 18 19 1.31538
r118 14 19 0.212317
r119 14 15 3.21538
r120 12 20 2.23323
r121 8 10 4.7687
r122 8 27 89.3538
r123 5 10 120.12
r124 1 8 4.7687
r125 1 2 160.68
.ends

.subckt PM_BIT_SELECT%XI3/XI1/XI9/NET8 1 2 5 8 10 12 15 18 19 25 27 30 31 34
c91 34 0 0.00434694f
c92 31 0 0.00102625f
c93 30 0 0.00594864f
c94 27 0 0.012819f
c95 25 0 0.00910249f
c96 19 0 0.00369397f
c97 18 0 0.00884103f
c98 15 0 0.0230632f
c99 12 0 0.0405378f
c100 10 0 0.10512f
c101 8 0 0.00565301f
c102 1 0 0.140859f
r103 32 34 0.57
r104 29 34 0.0223169
r105 29 30 1.78308
r106 26 31 0.0418175
r107 26 27 2.39692
r108 25 32 0.0223169
r109 24 31 0.160909
r110 24 25 1.56385
r111 20 31 0.160909
r112 18 30 0.212317
r113 18 19 1.31538
r114 14 19 0.212317
r115 14 15 3.21538
r116 12 20 2.23323
r117 8 10 4.7687
r118 8 27 89.3538
r119 5 10 120.12
r120 1 8 4.7687
r121 1 2 160.68
.ends

.subckt PM_BIT_SELECT%XI3/XI2/XI8/NET8 1 2 5 8 10 12 15 18 19 25 27 30 31 34
c95 34 0 0.00399198f
c96 31 0 0.00115229f
c97 30 0 0.00514008f
c98 27 0 0.015482f
c99 25 0 0.00868332f
c100 19 0 0.0032751f
c101 18 0 0.00833079f
c102 15 0 0.0226052f
c103 12 0 0.0416346f
c104 10 0 0.104993f
c105 8 0 0.0062357f
c106 1 0 0.138475f
r107 32 34 0.57
r108 29 34 0.0223169
r109 29 30 1.78308
r110 26 31 0.0418175
r111 26 27 2.39692
r112 25 32 0.0223169
r113 24 31 0.160909
r114 24 25 1.56385
r115 20 31 0.160909
r116 18 30 0.212317
r117 18 19 1.31538
r118 14 19 0.212317
r119 14 15 3.21538
r120 12 20 2.23323
r121 8 10 4.7687
r122 8 27 89.3538
r123 5 10 120.12
r124 1 8 4.7687
r125 1 2 160.68
.ends

.subckt PM_BIT_SELECT%XI3/XI2/XI9/NET8 1 2 5 8 10 12 15 18 19 25 27 30 31 34
c91 34 0 0.00434694f
c92 31 0 0.00102625f
c93 30 0 0.00594864f
c94 27 0 0.012819f
c95 25 0 0.00910249f
c96 19 0 0.00369397f
c97 18 0 0.00884103f
c98 15 0 0.0230632f
c99 12 0 0.0405378f
c100 10 0 0.10512f
c101 8 0 0.00565301f
c102 1 0 0.140859f
r103 32 34 0.57
r104 29 34 0.0223169
r105 29 30 1.78308
r106 26 31 0.0418175
r107 26 27 2.39692
r108 25 32 0.0223169
r109 24 31 0.160909
r110 24 25 1.56385
r111 20 31 0.160909
r112 18 30 0.212317
r113 18 19 1.31538
r114 14 19 0.212317
r115 14 15 3.21538
r116 12 20 2.23323
r117 8 10 4.7687
r118 8 27 89.3538
r119 5 10 120.12
r120 1 8 4.7687
r121 1 2 160.68
.ends

.subckt PM_BIT_SELECT%XI1/XI4/XI8/NET8 1 2 5 8 10 12 15 18 19 25 27 30 31 34
c95 34 0 0.00399198f
c96 31 0 7.99819e-19
c97 30 0 0.00514008f
c98 27 0 0.015482f
c99 25 0 0.00763275f
c100 19 0 0.0032751f
c101 18 0 0.00833079f
c102 15 0 0.0203996f
c103 12 0 0.0395123f
c104 10 0 0.104993f
c105 8 0 0.0062357f
c106 1 0 0.138592f
r107 32 34 0.57
r108 29 34 0.0223169
r109 29 30 1.78308
r110 26 31 0.0418175
r111 26 27 2.39692
r112 25 32 0.0223169
r113 24 31 0.160909
r114 24 25 1.56385
r115 20 31 0.160909
r116 18 30 0.212317
r117 18 19 1.31538
r118 14 19 0.212317
r119 14 15 3.21538
r120 12 20 2.23323
r121 8 10 4.7687
r122 8 27 89.3538
r123 5 10 120.12
r124 1 8 4.7687
r125 1 2 160.68
.ends

.subckt PM_BIT_SELECT%XI1/XI4/XI9/NET8 1 2 5 8 10 12 15 18 19 25 27 30 31 34
c91 34 0 0.00434694f
c92 31 0 0.00102625f
c93 30 0 0.00594864f
c94 27 0 0.012819f
c95 25 0 0.00910249f
c96 19 0 0.00369397f
c97 18 0 0.00884103f
c98 15 0 0.0229102f
c99 12 0 0.0405378f
c100 10 0 0.105055f
c101 8 0 0.00565301f
c102 1 0 0.140859f
r103 32 34 0.57
r104 29 34 0.0223169
r105 29 30 1.78308
r106 26 31 0.0418175
r107 26 27 2.39692
r108 25 32 0.0223169
r109 24 31 0.160909
r110 24 25 1.56385
r111 20 31 0.160909
r112 18 30 0.212317
r113 18 19 1.31538
r114 14 19 0.212317
r115 14 15 3.21538
r116 12 20 2.23323
r117 8 10 4.7687
r118 8 27 89.3538
r119 5 10 120.12
r120 1 8 4.7687
r121 1 2 160.68
.ends

.subckt PM_BIT_SELECT%XI1/XI5/XI8/NET8 1 2 5 8 10 12 15 18 19 25 27 30 31 34
c95 34 0 0.00399198f
c96 31 0 7.993e-19
c97 30 0 0.00514008f
c98 27 0 0.015482f
c99 25 0 0.0076312f
c100 19 0 0.0032751f
c101 18 0 0.00833079f
c102 15 0 0.0203945f
c103 12 0 0.039509f
c104 10 0 0.104993f
c105 8 0 0.0062357f
c106 1 0 0.138592f
r107 32 34 0.57
r108 29 34 0.0223169
r109 29 30 1.78308
r110 26 31 0.0418175
r111 26 27 2.39692
r112 25 32 0.0223169
r113 24 31 0.160909
r114 24 25 1.56385
r115 20 31 0.160909
r116 18 30 0.212317
r117 18 19 1.31538
r118 14 19 0.212317
r119 14 15 3.21538
r120 12 20 2.23323
r121 8 10 4.7687
r122 8 27 89.3538
r123 5 10 120.12
r124 1 8 4.7687
r125 1 2 160.68
.ends

.subckt PM_BIT_SELECT%XI1/XI5/XI9/NET8 1 2 5 8 10 12 15 18 19 25 27 30 31 34
c91 34 0 0.00434694f
c92 31 0 0.00102625f
c93 30 0 0.00594864f
c94 27 0 0.012819f
c95 25 0 0.00910249f
c96 19 0 0.00369397f
c97 18 0 0.00884103f
c98 15 0 0.0229102f
c99 12 0 0.0405378f
c100 10 0 0.105055f
c101 8 0 0.00565301f
c102 1 0 0.140859f
r103 32 34 0.57
r104 29 34 0.0223169
r105 29 30 1.78308
r106 26 31 0.0418175
r107 26 27 2.39692
r108 25 32 0.0223169
r109 24 31 0.160909
r110 24 25 1.56385
r111 20 31 0.160909
r112 18 30 0.212317
r113 18 19 1.31538
r114 14 19 0.212317
r115 14 15 3.21538
r116 12 20 2.23323
r117 8 10 4.7687
r118 8 27 89.3538
r119 5 10 120.12
r120 1 8 4.7687
r121 1 2 160.68
.ends

.subckt PM_BIT_SELECT%XI1/XI0/XI8/NET8 1 2 5 8 10 12 15 18 19 25 27 30 31 34
c97 34 0 0.00399198f
c98 31 0 7.993e-19
c99 30 0 0.00514008f
c100 27 0 0.015482f
c101 25 0 0.0076312f
c102 19 0 0.0032751f
c103 18 0 0.00833079f
c104 15 0 0.0205836f
c105 12 0 0.039509f
c106 10 0 0.104993f
c107 8 0 0.0062357f
c108 1 0 0.138475f
r109 32 34 0.57
r110 29 34 0.0223169
r111 29 30 1.78308
r112 26 31 0.0418175
r113 26 27 2.39692
r114 25 32 0.0223169
r115 24 31 0.160909
r116 24 25 1.56385
r117 20 31 0.160909
r118 18 30 0.212317
r119 18 19 1.31538
r120 14 19 0.212317
r121 14 15 3.21538
r122 12 20 2.23323
r123 8 10 4.7687
r124 8 27 89.3538
r125 5 10 120.12
r126 1 8 4.7687
r127 1 2 160.68
.ends

.subckt PM_BIT_SELECT%XI1/XI0/XI9/NET8 1 2 5 8 10 12 15 18 19 25 27 30 31 34
c92 34 0 0.00434694f
c93 31 0 0.00102625f
c94 30 0 0.00594864f
c95 27 0 0.012819f
c96 25 0 0.00910249f
c97 19 0 0.00369397f
c98 18 0 0.00884103f
c99 15 0 0.0229344f
c100 12 0 0.0405378f
c101 10 0 0.105055f
c102 8 0 0.00565301f
c103 1 0 0.140985f
r104 32 34 0.57
r105 29 34 0.0223169
r106 29 30 1.78308
r107 26 31 0.0418175
r108 26 27 2.39692
r109 25 32 0.0223169
r110 24 31 0.160909
r111 24 25 1.56385
r112 20 31 0.160909
r113 18 30 0.212317
r114 18 19 1.31538
r115 14 19 0.212317
r116 14 15 3.21538
r117 12 20 2.23323
r118 8 10 4.7687
r119 8 27 89.3538
r120 5 10 120.12
r121 1 8 4.7687
r122 1 2 160.68
.ends

.subckt PM_BIT_SELECT%XI1/XI1/XI8/NET8 1 2 5 8 10 12 15 18 19 25 27 30 31 34
c97 34 0 0.00399198f
c98 31 0 7.993e-19
c99 30 0 0.00514008f
c100 27 0 0.015482f
c101 25 0 0.0076312f
c102 19 0 0.0032751f
c103 18 0 0.00833079f
c104 15 0 0.0205836f
c105 12 0 0.039509f
c106 10 0 0.104993f
c107 8 0 0.0062357f
c108 1 0 0.138475f
r109 32 34 0.57
r110 29 34 0.0223169
r111 29 30 1.78308
r112 26 31 0.0418175
r113 26 27 2.39692
r114 25 32 0.0223169
r115 24 31 0.160909
r116 24 25 1.56385
r117 20 31 0.160909
r118 18 30 0.212317
r119 18 19 1.31538
r120 14 19 0.212317
r121 14 15 3.21538
r122 12 20 2.23323
r123 8 10 4.7687
r124 8 27 89.3538
r125 5 10 120.12
r126 1 8 4.7687
r127 1 2 160.68
.ends

.subckt PM_BIT_SELECT%XI1/XI1/XI9/NET8 1 2 5 8 10 12 15 18 19 25 27 30 31 34
c92 34 0 0.00434694f
c93 31 0 0.00102625f
c94 30 0 0.00594864f
c95 27 0 0.012819f
c96 25 0 0.00910249f
c97 19 0 0.00369397f
c98 18 0 0.00884103f
c99 15 0 0.0229344f
c100 12 0 0.0405378f
c101 10 0 0.105055f
c102 8 0 0.00565301f
c103 1 0 0.140985f
r104 32 34 0.57
r105 29 34 0.0223169
r106 29 30 1.78308
r107 26 31 0.0418175
r108 26 27 2.39692
r109 25 32 0.0223169
r110 24 31 0.160909
r111 24 25 1.56385
r112 20 31 0.160909
r113 18 30 0.212317
r114 18 19 1.31538
r115 14 19 0.212317
r116 14 15 3.21538
r117 12 20 2.23323
r118 8 10 4.7687
r119 8 27 89.3538
r120 5 10 120.12
r121 1 8 4.7687
r122 1 2 160.68
.ends

.subckt PM_BIT_SELECT%XI1/XI6/XI8/NET8 1 2 5 8 10 12 15 18 19 25 27 30 31 34
c95 34 0 0.00399198f
c96 31 0 7.993e-19
c97 30 0 0.00514008f
c98 27 0 0.015482f
c99 25 0 0.0076312f
c100 19 0 0.0032751f
c101 18 0 0.00833079f
c102 15 0 0.0203945f
c103 12 0 0.039509f
c104 10 0 0.104993f
c105 8 0 0.0062357f
c106 1 0 0.138593f
r107 32 34 0.57
r108 29 34 0.0223169
r109 29 30 1.78308
r110 26 31 0.0418175
r111 26 27 2.39692
r112 25 32 0.0223169
r113 24 31 0.160909