* File: RIPPLE.pex.netlist.pex
* Created: Thu Jun  6 15:26:38 2013
* Program "Calibre xRC"
* Version "v2011.4_35.27"
* Nominal Temperature: 27C
* Circuit Temperature: 27C
* 
.subckt PM_RIPPLE%XI7/XI0/NET9 6 13 20 21 23 25 26
c24 26 0 0.00108874f
c25 25 0 0.0158349f
c26 23 0 0.00734842f
c27 21 0 0.0156162f
c28 20 0 0.00175348f
c29 13 0 0.0307271f
c30 6 0 0.0148013f
r31 25 26 0.553316
r32 23 30 4.7687
r33 21 23 89.3538
r34 20 21 3.52231
r35 17 25 0.340516
r36 15 20 0.212317
r37 15 26 0.38
r38 13 30 35.88
r39 6 17 2.49923
.ends

.subckt PM_RIPPLE%XI8/XI5/NET9 6 13 20 21 23 25 26
c30 26 0 0.00105962f
c31 25 0 0.0128254f
c32 23 0 0.00734818f
c33 21 0 0.0153745f
c34 20 0 0.00175348f
c35 13 0 0.0307419f
c36 6 0 0.00742772f
r37 25 26 0.553316
r38 23 30 4.7687
r39 21 23 89.3538
r40 20 21 3.52231
r41 17 25 0.340516
r42 15 20 0.212317
r43 15 26 0.38
r44 13 30 35.88
r45 6 17 2.49923
.ends

.subckt PM_RIPPLE%XI8/XI0/NET9 6 13 20 21 23 25 26
c35 26 0 8.30241e-19
c36 25 0 0.0137439f
c37 23 0 0.00667558f
c38 21 0 0.01574f
c39 20 0 0.00159139f
c40 13 0 0.0306247f
c41 6 0 0.0116916f
r42 25 26 0.553316
r43 23 30 4.7687
r44 21 23 89.3538
r45 20 21 3.52231
r46 17 25 0.340516
r47 15 20 0.212317
r48 15 26 0.38
r49 13 30 35.88
r50 6 17 2.49923
.ends

.subckt PM_RIPPLE%XI9/XI5/NET9 6 13 20 21 23 25 26
c30 26 0 0.00105962f
c31 25 0 0.0128254f
c32 23 0 0.00734818f
c33 21 0 0.0153745f
c34 20 0 0.00175348f
c35 13 0 0.0307419f
c36 6 0 0.00742772f
r37 25 26 0.553316
r38 23 30 4.7687
r39 21 23 89.3538
r40 20 21 3.52231
r41 17 25 0.340516
r42 15 20 0.212317
r43 15 26 0.38
r44 13 30 35.88
r45 6 17 2.49923
.ends

.subckt PM_RIPPLE%XI9/XI0/NET9 6 13 20 21 23 25 26
c35 26 0 8.30241e-19
c36 25 0 0.0137439f
c37 23 0 0.00667558f
c38 21 0 0.01574f
c39 20 0 0.00159139f
c40 13 0 0.0306247f
c41 6 0 0.0116916f
r42 25 26 0.553316
r43 23 30 4.7687
r44 21 23 89.3538
r45 20 21 3.52231
r46 17 25 0.340516
r47 15 20 0.212317
r48 15 26 0.38
r49 13 30 35.88
r50 6 17 2.49923
.ends

.subckt PM_RIPPLE%XI16/XI5/NET9 6 13 20 21 23 25 26
c30 26 0 0.00105962f
c31 25 0 0.0128254f
c32 23 0 0.00734818f
c33 21 0 0.0153745f
c34 20 0 0.00175348f
c35 13 0 0.0307419f
c36 6 0 0.00742772f
r37 25 26 0.553316
r38 23 30 4.7687
r39 21 23 89.3538
r40 20 21 3.52231
r41 17 25 0.340516
r42 15 20 0.212317
r43 15 26 0.38
r44 13 30 35.88
r45 6 17 2.49923
.ends

.subckt PM_RIPPLE%XI16/XI0/NET9 6 13 20 21 23 25 26
c35 26 0 8.30241e-19
c36 25 0 0.0137439f
c37 23 0 0.00667558f
c38 21 0 0.01574f
c39 20 0 0.00159139f
c40 13 0 0.0306247f
c41 6 0 0.0116916f
r42 25 26 0.553316
r43 23 30 4.7687
r44 21 23 89.3538
r45 20 21 3.52231
r46 17 25 0.340516
r47 15 20 0.212317
r48 15 26 0.38
r49 13 30 35.88
r50 6 17 2.49923
.ends

.subckt PM_RIPPLE%XI11/XI5/NET9 6 13 20 21 23 25 26
c30 26 0 0.00105962f
c31 25 0 0.0128254f
c32 23 0 0.00734818f
c33 21 0 0.0153745f
c34 20 0 0.00175348f
c35 13 0 0.0307419f
c36 6 0 0.00742772f
r37 25 26 0.553316
r38 23 30 4.7687
r39 21 23 89.3538
r40 20 21 3.52231
r41 17 25 0.340516
r42 15 20 0.212317
r43 15 26 0.38
r44 13 30 35.88
r45 6 17 2.49923
.ends

.subckt PM_RIPPLE%XI11/XI0/NET9 6 13 20 21 23 25 26
c35 26 0 8.30241e-19
c36 25 0 0.0137439f
c37 23 0 0.00667558f
c38 21 0 0.01574f
c39 20 0 0.00159139f
c40 13 0 0.0306247f
c41 6 0 0.0116916f
r42 25 26 0.553316
r43 23 30 4.7687
r44 21 23 89.3538
r45 20 21 3.52231
r46 17 25 0.340516
r47 15 20 0.212317
r48 15 26 0.38
r49 13 30 35.88
r50 6 17 2.49923
.ends

.subckt PM_RIPPLE%XI12/XI5/NET9 6 13 20 21 23 25 26
c30 26 0 0.00105962f
c31 25 0 0.0128254f
c32 23 0 0.00734818f
c33 21 0 0.0153745f
c34 20 0 0.00175348f
c35 13 0 0.0307419f
c36 6 0 0.00742772f
r37 25 26 0.553316
r38 23 30 4.7687
r39 21 23 89.3538
r40 20 21 3.52231
r41 17 25 0.340516
r42 15 20 0.212317
r43 15 26 0.38
r44 13 30 35.88
r45 6 17 2.49923
.ends

.subckt PM_RIPPLE%XI12/XI0/NET9 6 13 20 21 23 25 26
c35 26 0 8.30241e-19
c36 25 0 0.0137439f
c37 23 0 0.00667558f
c38 21 0 0.01574f
c39 20 0 0.00159139f
c40 13 0 0.0306247f
c41 6 0 0.0116916f
r42 25 26 0.553316
r43 23 30 4.7687
r44 21 23 89.3538
r45 20 21 3.52231
r46 17 25 0.340516
r47 15 20 0.212317
r48 15 26 0.38
r49 13 30 35.88
r50 6 17 2.49923
.ends

.subckt PM_RIPPLE%XI13/XI5/NET9 6 13 20 21 23 25 26
c30 26 0 0.00105962f
c31 25 0 0.0128254f
c32 23 0 0.00734818f
c33 21 0 0.0153745f
c34 20 0 0.00175348f
c35 13 0 0.0307419f
c36 6 0 0.00742772f
r37 25 26 0.553316
r38 23 30 4.7687
r39 21 23 89.3538
r40 20 21 3.52231
r41 17 25 0.340516
r42 15 20 0.212317
r43 15 26 0.38
r44 13 30 35.88
r45 6 17 2.49923
.ends

.subckt PM_RIPPLE%XI13/XI0/NET9 6 13 20 21 23 25 26
c35 26 0 8.30241e-19
c36 25 0 0.0137439f
c37 23 0 0.00667558f
c38 21 0 0.01574f
c39 20 0 0.00159139f
c40 13 0 0.0306247f
c41 6 0 0.0116916f
r42 25 26 0.553316
r43 23 30 4.7687
r44 21 23 89.3538
r45 20 21 3.52231
r46 17 25 0.340516
r47 15 20 0.212317
r48 15 26 0.38
r49 13 30 35.88
r50 6 17 2.49923
.ends

.subckt PM_RIPPLE%XI14/XI5/NET9 6 13 20 21 23 25 26
c30 26 0 0.00105962f
c31 25 0 0.0128254f
c32 23 0 0.00734818f
c33 21 0 0.0153745f
c34 20 0 0.00175348f
c35 13 0 0.0307419f
c36 6 0 0.00742772f
r37 25 26 0.553316
r38 23 30 4.7687
r39 21 23 89.3538
r40 20 21 3.52231
r41 17 25 0.340516
r42 15 20 0.212317
r43 15 26 0.38
r44 13 30 35.88
r45 6 17 2.49923
.ends

.subckt PM_RIPPLE%XI14/XI0/NET9 6 13 20 21 23 25 26
c35 26 0 8.30241e-19
c36 25 0 0.0137439f
c37 23 0 0.00667558f
c38 21 0 0.01574f
c39 20 0 0.00159139f
c40 13 0 0.0306247f
c41 6 0 0.0116916f
r42 25 26 0.553316
r43 23 30 4.7687
r44 21 23 89.3538
r45 20 21 3.52231
r46 17 25 0.340516
r47 15 20 0.212317
r48 15 26 0.38
r49 13 30 35.88
r50 6 17 2.49923
.ends

.subckt PM_RIPPLE%XI7/XI2/NET8 1 2 5 8 10 12 15 18 19 25 27 30 31 34
c90 34 0 0.00496368f
c91 31 0 0.00134024f
c92 30 0 0.00680381f
c93 27 0 0.0155819f
c94 25 0 0.00806849f
c95 19 0 0.00416501f
c96 18 0 0.00837535f
c97 15 0 0.031263f
c98 12 0 0.0398398f
c99 10 0 0.105207f
c100 8 0 0.00618667f
c101 1 0 0.141256f
r102 32 34 0.57
r103 29 34 0.0223169
r104 29 30 1.78308
r105 26 31 0.0418175
r106 26 27 2.39692
r107 25 32 0.0223169
r108 24 31 0.160909
r109 24 25 1.56385
r110 20 31 0.160909
r111 18 30 0.212317
r112 18 19 1.31538
r113 14 19 0.212317
r114 14 15 3.21538
r115 12 20 2.23323
r116 8 10 4.7687
r117 8 27 89.3538
r118 5 10 120.12
r119 1 8 4.7687
r120 1 2 160.68
.ends

.subckt PM_RIPPLE%XI8/XI8/NET8 1 2 5 8 10 12 15 18 19 25 27 30 31 34
c98 34 0 0.00399198f
c99 31 0 0.00115229f
c100 30 0 0.00514008f
c101 27 0 0.015482f
c102 25 0 0.00868332f
c103 19 0 0.0032751f
c104 18 0 0.00833079f
c105 15 0 0.0226052f
c106 12 0 0.0416346f
c107 10 0 0.104993f
c108 8 0 0.0062357f
c109 1 0 0.138475f
r110 32 34 0.57
r111 29 34 0.0223169
r112 29 30 1.78308
r113 26 31 0.0418175
r114 26 27 2.39692
r115 25 32 0.0223169
r116 24 31 0.160909
r117 24 25 1.56385
r118 20 31 0.160909
r119 18 30 0.212317
r120 18 19 1.31538
r121 14 19 0.212317
r122 14 15 3.21538
r123 12 20 2.23323
r124 8 10 4.7687
r125 8 27 89.3538
r126 5 10 120.12
r127 1 8 4.7687
r128 1 2 160.68
.ends

.subckt PM_RIPPLE%XI8/XI9/NET8 1 2 5 8 10 12 15 18 19 25 27 30 31 34
c94 34 0 0.00434694f
c95 31 0 0.00102625f
c96 30 0 0.00594864f
c97 27 0 0.012819f
c98 25 0 0.00910249f
c99 19 0 0.00369397f
c100 18 0 0.00884103f
c101 15 0 0.0230632f
c102 12 0 0.0405378f
c103 10 0 0.10512f
c104 8 0 0.00565301f
c105 1 0 0.140859f
r106 32 34 0.57
r107 29 34 0.0223169
r108 29 30 1.78308
r109 26 31 0.0418175
r110 26 27 2.39692
r111 25 32 0.0223169
r112 24 31 0.160909
r113 24 25 1.56385
r114 20 31 0.160909
r115 18 30 0.212317
r116 18 19 1.31538
r117 14 19 0.212317
r118 14 15 3.21538
r119 12 20 2.23323
r120 8 10 4.7687
r121 8 27 89.3538
r122 5 10 120.12
r123 1 8 4.7687
r124 1 2 160.68
.ends

.subckt PM_RIPPLE%XI9/XI8/NET8 1 2 5 8 10 12 15 18 19 25 27 30 31 34
c98 34 0 0.00399198f
c99 31 0 0.00115229f
c100 30 0 0.00514008f
c101 27 0 0.015482f
c102 25 0 0.00868332f
c103 19 0 0.0032751f
c104 18 0 0.00833079f
c105 15 0 0.0226052f
c106 12 0 0.0416346f
c107 10 0 0.104993f
c108 8 0 0.0062357f
c109 1 0 0.138475f
r110 32 34 0.57
r111 29 34 0.0223169
r112 29 30 1.78308
r113 26 31 0.0418175
r114 26 27 2.39692
r115 25 32 0.0223169
r116 24 31 0.160909
r117 24 25 1.56385
r118 20 31 0.160909
r119 18 30 0.212317
r120 18 19 1.31538
r121 14 19 0.212317
r122 14 15 3.21538
r123 12 20 2.23323
r124 8 10 4.7687
r125 8 27 89.3538
r126 5 10 120.12
r127 1 8 4.7687
r128 1 2 160.68
.ends

.subckt PM_RIPPLE%XI9/XI9/NET8 1 2 5 8 10 12 15 18 19 25 27 30 31 34
c94 34 0 0.00434694f
c95 31 0 0.00102625f
c96 30 0 0.00594864f
c97 27 0 0.012819f
c98 25 0 0.00910249f
c99 19 0 0.00369397f
c100 18 0 0.00884103f
c101 15 0 0.0230632f
c102 12 0 0.0405378f
c103 10 0 0.10512f
c104 8 0 0.00565301f
c105 1 0 0.140859f
r106 32 34 0.57
r107 29 34 0.0223169
r108 29 30 1.78308
r109 26 31 0.0418175
r110 26 27 2.39692
r111 25 32 0.0223169
r112 24 31 0.160909
r113 24 25 1.56385
r114 20 31 0.160909
r115 18 30 0.212317
r116 18 19 1.31538
r117 14 19 0.212317
r118 14 15 3.21538
r119 12 20 2.23323
r120 8 10 4.7687
r121 8 27 89.3538
r122 5 10 120.12
r123 1 8 4.7687
r124 1 2 160.68
.ends

.subckt PM_RIPPLE%XI16/XI8/NET8 1 2 5 8 10 12 15 18 19 25 27 30 31 34
c98 34 0 0.00399198f
c99 31 0 0.00115229f
c100 30 0 0.00514008f
c101 27 0 0.015482f
c102 25 0 0.00868332f
c103 19 0 0.0032751f
c104 18 0 0.00833079f
c105 15 0 0.0226052f
c106 12 0 0.0416346f
c107 10 0 0.104993f
c108 8 0 0.0062357f
c109 1 0 0.138475f
r110 32 34 0.57
r111 29 34 0.0223169
r112 29 30 1.78308
r113 26 31 0.0418175
r114 26 27 2.39692
r115 25 32 0.0223169
r116 24 31 0.160909
r117 24 25 1.56385
r118 20 31 0.160909
r119 18 30 0.212317
r120 18 19 1.31538
r121 14 19 0.212317
r122 14 15 3.21538
r123 12 20 2.23323
r124 8 10 4.7687
r125 8 27 89.3538
r126 5 10 120.12
r127 1 8 4.7687
r128 1 2 160.68
.ends

.subckt PM_RIPPLE%XI16/XI9/NET8 1 2 5 8 10 12 15 18 19 25 27 30 31 34
c94 34 0 0.00434694f
c95 31 0 0.00102625f
c96 30 0 0.00594864f
c97 27 0 0.012819f
c98 25 0 0.00910249f
c99 19 0 0.00369397f
c100 18 0 0.00884103f
c101 15 0 0.0230632f
c102 12 0 0.0405378f
c103 10 0 0.10512f
c104 8 0 0.00565301f
c105 1 0 0.140859f
r106 32 34 0.57
r107 29 34 0.0223169
r108 29 30 1.78308
r109 26 31 0.0418175
r110 26 27 2.39692
r111 25 32 0.0223169
r112 24 31 0.160909
r113 24 25 1.56385
r114 20 31 0.160909
r115 18 30 0.212317
r116 18 19 1.31538
r117 14 19 0.212317
r118 14 15 3.21538
r119 12 20 2.23323
r120 8 10 4.7687
r121 8 27 89.3538
r122 5 10 120.12
r123 1 8 4.7687
r124 1 2 160.68
.ends

.subckt PM_RIPPLE%XI11/XI8/NET8 1 2 5 8 10 12 15 18 19 25 27 30 31 34
c98 34 0 0.00399198f
c99 31 0 0.00115229f
c100 30 0 0.00514008f
c101 27 0 0.015482f
c102 25 0 0.00868332f
c103 19 0 0.0032751f
c104 18 0 0.00833079f
c105 15 0 0.0226052f
c106 12 0 0.0416346f
c107 10 0 0.104993f
c108 8 0 0.0062357f
c109 1 0 0.138475f
r110 32 34 0.57
r111 29 34 0.0223169
r112 29 30 1.78308
r113 26 31 0.0418175
r114 26 27 2.39692
r115 25 32 0.0223169
r116 24 31 0.160909
r117 24 25 1.56385
r118 20 31 0.160909
r119 18 30 0.212317
r120 18 19 1.31538
r121 14 19 0.212317
r122 14 15 3.21538
r123 12 20 2.23323
r124 8 10 4.7687
r125 8 27 89.3538
r126 5 10 120.12
r127 1 8 4.7687
r128 1 2 160.68
.ends

.subckt PM_RIPPLE%XI11/XI9/NET8 1 2 5 8 10 12 15 18 19 25 27 30 31 34
c94 34 0 0.00434694f
c95 31 0 0.00102625f
c96 30 0 0.00594864f
c97 27 0 0.012819f
c98 25 0 0.00910249f
c99 19 0 0.00369397f
c100 18 0 0.00884103f
c101 15 0 0.0230632f
c102 12 0 0.0405378f
c103 10 0 0.10512f
c104 8 0 0.00565301f
c105 1 0 0.140859f
r106 32 34 0.57
r107 29 34 0.0223169
r108 29 30 1.78308
r109 26 31 0.0418175
r110 26 27 2.39692
r111 25 32 0.0223169
r112 24 31 0.160909
r113 24 25 1.56385
r114 20 31 0.160909
r115 18 30 0.212317
r116 18 19 1.31538
r117 14 19 0.212317
r118 14 15 3.21538
r119 12 20 2.23323
r120 8 10 4.7687
r121 8 27 89.3538
r122 5 10 120.12
r123 1 8 4.7687
r124 1 2 160.68
.ends

.subckt PM_RIPPLE%XI12/XI8/NET8 1 2 5 8 10 12 15 18 19 25 27 30 31 34
c98 34 0 0.00399198f
c99 31 0 0.00115229f
c100 30 0 0.00514008f
c101 27 0 0.015482f
c102 25 0 0.00868332f
c103 19 0 0.0032751f
c104 18 0 0.00833079f
c105 15 0 0.0226052f
c106 12 0 0.0416346f
c107 10 0 0.104993f
c108 8 0 0.0062357f
c109 1 0 0.138475f
r110 32 34 0.57
r111 29 34 0.0223169
r112 29 30 1.78308
r113 26 31 0.0418175
r114 26 27 2.39692
r115 25 32 0.0223169
r116 24 31 0.160909
r117 24 25 1.56385
r118 20 31 0.160909
r119 18 30 0.212317
r120 18 19 1.31538
r121 14 19 0.212317
r122 14 15 3.21538
r123 12 20 2.23323
r124 8 10 4.7687
r125 8 27 89.3538
r126 5 10 120.12
r127 1 8 4.7687
r128 1 2 160.68
.ends

.subckt PM_RIPPLE%XI12/XI9/NET8 1 2 5 8 10 12 15 18 19 25 27 30 31 34
c94 34 0 0.00434694f
c95 31 0 0.00102625f
c96 30 0 0.00594864f
c97 27 0 0.012819f
c98 25 0 0.00910249f
c99 19 0 0.00369397f
c100 18 0 0.00884103f
c101 15 0 0.0230632f
c102 12 0 0.0405378f
c103 10 0 0.10512f
c104 8 0 0.00565301f
c105 1 0 0.140859f
r106 32 34 0.57
r107 29 34 0.0223169
r108 29 30 1.78308
r109 26 31 0.0418175
r110 26 27 2.39692
r111 25 32 0.0223169
r112 24 31 0.160909
r113 24 25 1.56385
r114 20 31 0.160909
r115 18 30 0.212317
r116 18 19 1.31538
r117 14 19 0.212317
r118 14 15 3.21538
r119 12 20 2.23323
r120 8 10 4.7687
r121 8 27 89.3538
r122 5 10 120.12
r123 1 8 4.7687
r124 1 2 160.68
.ends

.subckt PM_RIPPLE%XI13/XI8/NET8 1 2 5 8 10 12 15 18 19 25 27 30 31 34
c98 34 0 0.00399198f
c99 31 0 0.00115229f
c100 30 0 0.00514008f
c101 27 0 0.015482f
c102 25 0 0.00868332f
c103 19 0 0.0032751f
c104 18 0 0.00833079f
c105 15 0 0.0226052f
c106 12 0 0.0416346f
c107 10 0 0.104993f
c108 8 0 0.0062357f
c109 1 0 0.138475f
r110 32 34 0.57
r111 29 34 0.0223169
r112 29 30 1.78308
r113 26 31 0.0418175
r114 26 27 2.39692
r115 25 32 0.0223169
r116 24 31 0.160909
r117 24 25 1.56385
r118 20 31 0.160909
r119 18 30 0.212317
r120 18 19 1.31538
r121 14 19 0.212317
r122 14 15 3.21538
r123 12 20 2.23323
r124 8 10 4.7687
r125 8 27 89.3538
r126 5 10 120.12
r127 1 8 4.7687
r128 1 2 160.68
.ends

.subckt PM_RIPPLE%XI13/XI9/NET8 1 2 5 8 10 12 15 18 19 25 27 30 31 34
c94 34 0 0.00434694f
c95 31 0 0.00102625f
c96 30 0 0.00594864f
c97 27 0 0.012819f
c98 25 0 0.00910249f
c99 19 0 0.00369397f
c100 18 0 0.00884103f
c101 15 0 0.0230632f
c102 12 0 0.0405378f
c103 10 0 0.10512f
c104 8 0 0.00565301f
c105 1 0 0.140859f
r106 32 34 0.57
r107 29 34 0.0223169
r108 29 30 1.78308
r109 26 31 0.0418175
r110 26 27 2.39692
r111 25 32 0.0223169
r112 24 31 0.160909
r113 24 25 1.56385
r114 20 31 0.160909
r115 18 30 0.212317
r116 18 19 1.31538
r117 14 19 0.212317
r118 14 15 3.21538
r119 12 20 2.23323
r120 8 10 4.7687
r121 8 27 89.3538
r122 5 10 120.12
r123 1 8 4.7687
r124 1 2 160.68
.ends

.subckt PM_RIPPLE%XI14/XI8/NET8 1 2 5 8 10 12 15 18 19 25 27 30 31 34
c98 34 0 0.00399198f
c99 31 0 0.00115229f
c100 30 0 0.00514008f
c101 27 0 0.015482f
c102 25 0 0.00868332f
c103 19 0 0.0032751f
c104 18 0 0.00833079f
c105 15 0 0.0226052f
c106 12 0 0.0416346f
c107 10 0 0.104993f
c108 8 0 0.0062357f
c109 1 0 0.138475f
r110 32 34 0.57
r111 29 34 0.0223169
r112 29 30 1.78308
r113 26 31 0.0418175
r114 26 27 2.39692
r115 25 32 0.0223169
r116 24 31 0.160909
r117 24 25 1.56385
r118 20 31 0.160909
r119 18 30 0.212317
r120 18 19 1.31538
r121 14 19 0.212317
r122 14 15 3.21538
r123 12 20 2.23323
r124 8 10 4.7687
r125 8 27 89.3538
r126 5 10 120.12
r127 1 8 4.7687
r128 1 2 160.68
.ends

.subckt PM_RIPPLE%XI14/XI9/NET8 1 2 5 8 10 12 15 18 19 25 27 30 31 34
c94 34 0 0.00434694f
c95 31 0 0.00102625f
c96 30 0 0.00594864f
c97 27 0 0.012819f
c98 25 0 0.00910249f
c99 19 0 0.00369397f
c100 18 0 0.00884103f
c101 15 0 0.0230632f
c102 12 0 0.0405378f
c103 10 0 0.105129f
c104 8 0 0.00565301f
c105 1 0 0.140855f
r106 32 34 0.57
r107 29 34 0.0223169
r108 29 30 1.78308
r109 26 31 0.0418175
r110 26 27 2.39692
r111 25 32 0.0223169
r112 24 31 0.160909
r113 24 25 1.56385
r114 20 31 0.160909
r115 18 30 0.212317
r116 18 19 1.31538
r117 14 19 0.212317
r118 14 15 3.21538
r119 12 20 2.23323
r120 8 10 4.7687
r121 8 27 89.3538
r122 5 10 120.12
r123 1 8 4.7687
r124 1 2 160.68
.ends

.subckt PM_RIPPLE%XI8/NET11 11 13 15 17 18 19 22 24 45 48 53 65 67 69 70 71 72
+ 74 76 79 86 91 92 94
c104 94 0 0.00301713f
c105 86 0 0.00346648f
c106 79 0 0.00957525f
c107 76 0 0.0152655f
c108 74 0 0.0358529f
c109 72 0 0.00880732f
c110 71 0 0.00447483f
c111 70 0 0.0112134f
c112 69 0 0.001439f
c113 67 0 0.0151856f
c114 65 0 0.00305511f
c115 53 0 0.00455675f
c116 48 0 0.0797056f
c117 45 0 0.0956507f
c118 24 0 0.00669383f
c119 22 0 0.00777348f
c120 19 0 0.00106056f
c121 17 0 0.00450605f
c122 15 0 0.028547f
c123 11 0 0.0644864f
r124 91 92 0.7524
r125 83 86 0.0178571
r126 83 94 102.4
r127 80 81 102.4
r128 78 86 0.0146822
r129 78 79 0.785714
r130 77 80 0.0698411
r131 76 79 0.139682
r132 76 77 1.42857
r133 74 91 0.2128
r134 72 74 102.4
r135 71 80 0.0698411
r136 71 72 0.928571
r137 70 81 0.57
r138 68 69 0.388462
r139 67 81 1.97308
r140 67 69 0.285131
r141 64 70 0.212317
r142 64 65 0.774615
r143 53 55 4.7167
r144 51 94 0.00844444
r145 51 53 89.3538
r146 48 55 121.68
r147 43 53 4.8207
r148 43 45 136.5
r149 24 68 89.3538
r150 22 29 4.7687
r151 22 65 89.3538
r152 19 69 0.599231
r153 17 19 0.219955
r154 17 18 0.095
r155 15 29 31.98
r156 11 13 78.78
r157 10 24 4.7687
r158 10 13 31.98
.ends

.subckt PM_RIPPLE%XI8/NET14 19 20 21 23 25 27 31 35 39 43 49 51 58 60 62 64 70
+ 74 91 94 98 99 100 101 108 110 112 116 122 124 126
c136 129 0 8.44687e-19
c137 126 0 0.0895778f
c138 124 0 9.25404e-19
c139 122 0 0.00469071f
c140 116 0 0.00271936f
c141 112 0 0.0115208f
c142 110 0 0.0053268f
c143 108 0 0.0254544f
c144 103 0 9.48716e-19
c145 100 0 0.0032817f
c146 99 0 0.00722135f
c147 98 0 0.00631881f
c148 91 0 0.0422901f
c149 74 0 0.00499149f
c150 73 0 5.57264e-19
c151 72 0 5.57264e-19
c152 71 0 5.57264e-19
c153 70 0 0.00110071f
c154 69 0 9.49119e-19
c155 68 0 9.48716e-19
c156 67 0 9.48716e-19
c157 64 0 0.00800815f
c158 62 0 0.00473772f
c159 60 0 0.00484768f
c160 58 0 0.00555443f
c161 51 0 0.0113089f
c162 49 0 0.00778443f
c163 43 0 0.00332836f
c164 39 0 0.00340142f
c165 35 0 0.00569585f
c166 31 0 0.00343145f
c167 27 0 0.00325239f
c168 25 0 0.00295047f
c169 23 0 0.00305972f
c170 21 0 0.0029276f
c171 19 0 0.00339184f
r172 124 129 0.0140741
r173 122 124 89.3538
r174 122 126 4.7687
r175 119 129 102.4
r176 116 119 0.0446429
r177 110 112 102.4
r178 110 114 0.0178571
r179 109 114 0.0146822
r180 108 116 0.0146822
r181 108 109 4.55357
r182 102 112 1.08154
r183 102 103 0.160909
r184 100 103 0.0418175
r185 100 101 0.219231
r186 99 103 0.160909
r187 96 112 1.16923
r188 94 126 129.48
r189 89 122 4.7687
r190 89 91 64.74
r191 70 98 0.160909
r192 69 96 0.160909
r193 64 74 0.160909
r194 63 73 0.160909
r195 63 64 2.07538
r196 62 73 0.160909
r197 61 72 0.160909
r198 61 62 1.25692
r199 60 72 0.160909
r200 59 71 0.160909
r201 59 60 1.25692
r202 58 71 0.160909
r203 57 70 0.160909
r204 57 58 1.25692
r205 55 98 1.25692
r206 55 69 0.160909
r207 52 68 0.160909
r208 52 99 1.47615
r209 51 68 0.160909
r210 50 67 0.160909
r211 50 51 2.36769
r212 49 67 0.160909
r213 48 49 1.60769
r214 43 68 0.0418175
r215 43 101 0.219231
r216 39 67 0.0418175
r217 39 101 0.219231
r218 35 48 0.212317
r219 35 101 0.219231
r220 31 74 0.0418175
r221 27 73 0.0418175
r222 25 72 0.0418175
r223 23 71 0.0418175
r224 21 70 0.0418175
r225 20 21 0.233846
r226 20 23 0.233846
r227 20 25 0.233846
r228 20 27 0.233846
r229 20 31 0.233846
r230 19 69 0.0418175
r231 19 20 0.233846
.ends

.subckt PM_RIPPLE%XI8/NET7 19 20 21 23 25 27 31 35 39 43 49 51 58 60 62 64 67 68
+ 69 74 91 94 98 99 100 101 103 104 108 111 115 117 119 121
c121 121 0 0.089784f
c122 119 0 0.001141f
c123 117 0 0.00568362f
c124 115 0 0.0121742f
c125 111 0 0.00356365f
c126 108 0 0.0037357f
c127 104 0 0.0120458f
c128 103 0 0.00102025f
c129 100 0 0.00318362f
c130 99 0 0.00732634f
c131 98 0 0.00495271f
c132 91 0 0.0418281f
c133 74 0 0.00695519f
c134 73 0 9.77473e-19
c135 72 0 9.77473e-19
c136 71 0 9.77473e-19
c137 70 0 9.77473e-19
c138 69 0 0.0014952f
c139 68 0 9.77052e-19
c140 67 0 9.56887e-19
c141 64 0 0.00822708f
c142 62 0 0.00476171f
c143 60 0 0.0047866f
c144 58 0 0.00516079f
c145 51 0 0.0118276f
c146 49 0 0.00781741f
c147 43 0 0.00329185f
c148 39 0 0.00337148f
c149 35 0 0.00570854f
c150 31 0 0.00343145f
c151 27 0 0.00325239f
c152 25 0 0.00295047f
c153 23 0 0.00292772f
c154 21 0 0.00288218f
c155 19 0 0.00321542f
r156 117 119 89.3538
r157 117 121 4.7687
r158 113 115 102.4
r159 111 113 0.0178571
r160 108 119 102.4
r161 106 108 0.544643
r162 105 111 0.0146822
r163 104 106 0.139682
r164 104 105 1.33036
r165 102 115 0.102308
r166 102 103 0.160909
r167 100 103 0.0418175
r168 100 101 0.219231
r169 99 103 0.160909
r170 96 115 2.14846
r171 94 121 129.48
r172 89 117 4.7687
r173 89 91 64.74
r174 70 98 0.160909
r175 69 96 0.160909
r176 64 74 0.160909
r177 63 73 0.160909
r178 63 64 2.07538
r179 62 73 0.160909
r180 61 72 0.160909
r181 61 62 1.25692
r182 60 72 0.160909
r183 59 71 0.160909
r184 59 60 1.25692
r185 58 71 0.160909
r186 57 70 0.160909
r187 57 58 1.25692
r188 55 98 1.25692
r189 55 69 0.160909
r190 52 68 0.160909
r191 52 99 1.47615
r192 51 68 0.160909
r193 50 67 0.160909
r194 50 51 2.36769
r195 49 67 0.160909
r196 48 49 1.60769
r197 43 68 0.0418175
r198 43 101 0.219231
r199 39 67 0.0418175
r200 39 101 0.219231
r201 35 48 0.212317
r202 35 101 0.219231
r203 31 74 0.0418175
r204 27 73 0.0418175
r205 25 72 0.0418175
r206 23 71 0.0418175
r207 21 70 0.0418175
r208 20 21 0.233846
r209 20 23 0.233846
r210 20 25 0.233846
r211 20 27 0.233846
r212 20 31 0.233846
r213 19 69 0.0418175
r214 19 20 0.233846
.ends

.subckt PM_RIPPLE%XI8/XI7/NET7 1 2 5 8 10 13 16 21 28 32 34 36 38 40 43 44
c97 44 0 4.92706e-19
c98 43 0 0.00784132f
c99 40 0 0.00240708f
c100 38 0 0.00525359f
c101 36 0 0.0112567f
c102 34 0 0.00563233f
c103 32 0 0.00551416f
c104 28 0 0.0322759f
c105 21 0 0.00610499f
c106 16 0 0.00920132f
c107 13 0 0.00492564f
c108 10 0 0.105263f
c109 8 0 0.00622216f
c110 1 0 0.141256f
r111 39 40 0.38
r112 35 44 0.0418175
r113 35 36 1.81231
r114 34 43 0.789231
r115 33 44 0.160909
r116 33 34 1.18385
r117 32 44 0.160909
r118 31 40 0.0223169
r119 31 32 1.60769
r120 28 43 2.87923
r121 23 39 0.0223169
r122 22 38 0.0418175
r123 21 39 0.19
r124 21 22 1.81231
r125 15 38 0.160909
r126 15 16 0.394615
r127 13 23 0.394615
r128 8 10 4.7687
r129 8 36 89.3538
r130 5 10 120.12
r131 1 8 4.7687
r132 1 2 160.68
.ends

.subckt PM_RIPPLE%XI9/NET11 11 13 15 17 18 19 22 24 45 48 53 65 67 69 70 71 72
+ 74 76 79 86 91 92 94
c104 94 0 0.00301713f
c105 86 0 0.00346648f
c106 79 0 0.00957525f
c107 76 0 0.0152655f
c108 74 0 0.0358529f
c109 72 0 0.00880732f
c110 71 0 0.00447483f
c111 70 0 0.0112134f
c112 69 0 0.001439f
c113 67 0 0.0151856f
c114 65 0 0.00305511f
c115 53 0 0.00455675f
c116 48 0 0.0797056f
c117 45 0 0.0956507f
c118 24 0 0.00669383f
c119 22 0 0.00777348f
c120 19 0 0.00106056f
c121 17 0 0.00450605f
c122 15 0 0.028547f
c123 11 0 0.0644864f
r124 91 92 0.7524
r125 83 86 0.0178571
r126 83 94 102.4
r127 80 81 102.4
r128 78 86 0.0146822
r129 78 79 0.785714
r130 77 80 0.0698411
r131 76 79 0.139682
r132 76 77 1.42857
r133 74 91 0.2128
r134 72 74 102.4
r135 71 80 0.0698411
r136 71 72 0.928571
r137 70 81 0.57
r138 68 69 0.388462
r139 67 81 1.97308
r140 67 69 0.285131
r141 64 70 0.212317
r142 64 65 0.774615
r143 53 55 4.7167
r144 51 94 0.00844444
r145 51 53 89.3538
r146 48 55 121.68
r147 43 53 4.8207
r148 43 45 136.5
r149 24 68 89.3538
r150 22 29 4.7687
r151 22 65 89.3538
r152 19 69 0.599231
r153 17 19 0.219955
r154 17 18 0.095
r155 15 29 31.98
r156 11 13 78.78
r157 10 24 4.7687
r158 10 13 31.98
.ends

.subckt PM_RIPPLE%XI9/NET14 19 20 21 23 25 27 31 35 39 43 49 51 58 60 62 64 70
+ 74 91 94 98 99 100 101 108 110 112 116 122 124 126
c136 129 0 8.44687e-19
c137 126 0 0.0895778f
c138 124 0 9.25404e-19
c139 122 0 0.00469071f
c140 116 0 0.00271936f
c141 112 0 0.0115208f
c142 110 0 0.0053268f
c143 108 0 0.0254544f
c144 103 0 9.48716e-19
c145 100 0 0.0032817f
c146 99 0 0.00722135f
c147 98 0 0.00631881f
c148 91 0 0.0422901f
c149 74 0 0.00499149f
c150 73 0 5.57264e-19
c151 72 0 5.57264e-19
c152 71 0 5.57264e-19
c153 70 0 0.00110071f
c154 69 0 9.49119e-19
c155 68 0 9.48716e-19
c156 67 0 9.48716e-19
c157 64 0 0.00800815f
c158 62 0 0.00473772f
c159 60 0 0.00484768f
c160 58 0 0.00555443f
c161 51 0 0.0113089f
c162 49 0 0.00778443f
c163 43 0 0.00332836f
c164 39 0 0.00340142f
c165 35 0 0.00569585f
c166 31 0 0.00343145f
c167 27 0 0.00325239f
c168 25 0 0.00295047f
c169 23 0 0.00305972f
c170 21 0 0.0029276f
c171 19 0 0.00339184f
r172 124 129 0.0140741
r173 122 124 89.3538
r174 122 126 4.7687
r175 119 129 102.4
r176 116 119 0.0446429
r177 110 112 102.4
r178 110 114 0.0178571
r179 109 114 0.0146822
r180 108 116 0.0146822
r181 108 109 4.55357
r182 102 112 1.08154
r183 102 103 0.160909
r184 100 103 0.0418175
r185 100 101 0.219231
r186 99 103 0.160909
r187 96 112 1.16923
r188 94 126 129.48
r189 89 122 4.7687
r190 89 91 64.74
r191 70 98 0.160909
r192 69 96 0.160909
r193 64 74 0.160909
r194 63 73 0.160909
r195 63 64 2.07538
r196 62 73 0.160909
r197 61 72 0.160909
r198 61 62 1.25692
r199 60 72 0.160909
r200 59 71 0.160909
r201 59 60 1.25692
r202 58 71 0.160909
r203 57 70 0.160909
r204 57 58 1.25692
r205 55 98 1.25692
r206 55 69 0.160909
r207 52 68 0.160909
r208 52 99 1.47615
r209 51 68 0.160909
r210 50 67 0.160909
r211 50 51 2.36769
r212 49 67 0.160909
r213 48 49 1.60769
r214 43 68 0.0418175
r215 43 101 0.219231
r216 39 67 0.0418175
r217 39 101 0.219231
r218 35 48 0.212317
r219 35 101 0.219231
r220 31 74 0.0418175
r221 27 73 0.0418175
r222 25 72 0.0418175
r223 23 71 0.0418175
r224 21 70 0.0418175
r225 20 21 0.233846
r226 20 23 0.233846
r227 20 25 0.233846
r228 20 27 0.233846
r229 20 31 0.233846
r230 19 69 0.0418175
r231 19 20 0.233846
.ends

.subckt PM_RIPPLE%XI9/NET7 19 20 21 23 25 27 31 35 39 43 49 51 58 60 62 64 67 68
+ 69 74 91 94 98 99 100 101 103 104 108 111 115 117 119 121
c121 121 0 0.089784f
c122 119 0 0.001141f
c123 117 0 0.00568362f
c124 115 0 0.0121742f
c125 111 0 0.00356365f
c126 108 0 0.0037357f
c127 104 0 0.0120458f
c128 103 0 0.00102025f
c129 100 0 0.00318362f
c130 99 0 0.00732634f
c131 98 0 0.00495271f
c132 91 0 0.0418281f
c133 74 0 0.00695519f
c134 73 0 9.77473e-19
c135 72 0 9.77473e-19
c136 71 0 9.77473e-19
c137 70 0 9.77473e-19
c138 69 0 0.0014952f
c139 68 0 9.77052e-19
c140 67 0 9.56887e-19
c141 64 0 0.00822708f
c142 62 0 0.00476171f
c143 60 0 0.0047866f
c144 58 0 0.00516079f
c145 51 0 0.0118276f
c146 49 0 0.00781741f
c147 43 0 0.00329185f
c148 39 0 0.00337148f
c149 35 0 0.00570854f
c150 31 0 0.00343145f
c151 27 0 0.00325239f
c152 25 0 0.00295047f
c153 23 0 0.00292772f
c154 21 0 0.00288218f
c155 19 0 0.00321542f
r156 117 119 89.3538
r157 117 121 4.7687
r158 113 115 102.4
r159 111 113 0.0178571
r160 108 119 102.4
r161 106 108 0.544643
r162 105 111 0.0146822
r163 104 106 0.139682
r164 104 105 1.33036
r165 102 115 0.102308
r166 102 103 0.160909
r167 100 103 0.0418175
r168 100 101 0.219231
r169 99 103 0.160909
r170 96 115 2.14846
r171 94 121 129.48
r172 89 117 4.7687
r173 89 91 64.74
r174 70 98 0.160909
r175 69 96 0.160909
r176 64 74 0.160909
r177 63 73 0.160909
r178 63 64 2.07538
r179 62 73 0.160909
r180 61 72 0.160909
r181 61 62 1.25692
r182 60 72 0.160909
r183 59 71 0.160909
r184 59 60 1.25692
r185 58 71 0.160909
r186 57 70 0.160909
r187 57 58 1.25692
r188 55 98 1.25692
r189 55 69 0.160909
r190 52 68 0.160909
r191 52 99 1.47615
r192 51 68 0.160909
r193 50 67 0.160909
r194 50 51 2.36769
r195 49 67 0.160909
r196 48 49 1.60769
r197 43 68 0.0418175
r198 43 101 0.219231
r199 39 67 0.0418175
r200 39 101 0.219231
r201 35 48 0.212317
r202 35 101 0.219231
r203 31 74 0.0418175
r204 27 73 0.0418175
r205 25 72 0.0418175
r206 23 71 0.0418175
r207 21 70 0.0418175
r208 20 21 0.233846
r209 20 23 0.233846
r210 20 25 0.233846
r211 20 27 0.233846
r212 20 31 0.233846
r213 19 69 0.0418175
r214 19 20 0.233846
.ends

.subckt PM_RIPPLE%XI9/XI7/NET7 1 2 5 8 10 13 16 21 28 32 34 36 38 40 43 44
c97 44 0 4.92706e-19
c98 43 0 0.00784132f
c99 40 0 0.00240708f
c100 38 0 0.00525359f
c101 36 0 0.0112567f
c102 34 0 0.00563233f
c103 32 0 0.00551416f
c104 28 0 0.0322759f
c105 21 0 0.00610499f
c106 16 0 0.00920132f
c107 13 0 0.00492564f
c108 10 0 0.105263f
c109 8 0 0.00622216f
c110 1 0 0.141256f
r111 39 40 0.38
r112 35 44 0.0418175
r113 35 36 1.81231
r114 34 43 0.789231
r115 33 44 0.160909
r116 33 34 1.18385
r117 32 44 0.160909
r118 31 40 0.0223169
r119 31 32 1.60769
r120 28 43 2.87923
r121 23 39 0.0223169
r122 22 38 0.0418175
r123 21 39 0.19
r124 21 22 1.81231
r125 15 38 0.160909
r126 15 16 0.394615
r127 13 23 0.394615
r128 8 10 4.7687
r129 8 36 89.3538
r130 5 10 120.12
r131 1 8 4.7687
r132 1 2 160.68
.ends

.subckt PM_RIPPLE%XI16/NET11 11 13 15 17 18 19 22 24 45 48 53 65 67 69 70 71 72
+ 74 76 79 86 91 92 94
c104 94 0 0.00301713f
c105 86 0 0.00346648f
c106 79 0 0.00957525f
c107 76 0 0.0152655f
c108 74 0 0.0358529f
c109 72 0 0.00880732f
c110 71 0 0.00447483f
c111 70 0 0.0112134f
c112 69 0 0.001439f
c113 67 0 0.0151856f
c114 65 0 0.00305511f
c115 53 0 0.00455675f
c116 48 0 0.0797056f
c117 45 0 0.0956507f
c118 24 0 0.00669383f
c119 22 0 0.00777348f
c120 19 0 0.00106056f
c121 17 0 0.00450605f
c122 15 0 0.028547f
c123 11 0 0.0644864f
r124 91 92 0.7524
r125 83 86 0.0178571
r126 83 94 102.4
r127 80 81 102.4
r128 78 86 0.0146822
r129 78 79 0.785714
r130 77 80 0.0698411
r131 76 79 0.139682
r132 76 77 1.42857
r133 74 91 0.2128
r134 72 74 102.4
r135 71 80 0.0698411
r136 71 72 0.928571
r137 70 81 0.57
r138 68 69 0.388462
r139 67 81 1.97308
r140 67 69 0.285131
r141 64 70 0.212317
r142 64 65 0.774615
r143 53 55 4.7167
r144 51 94 0.00844444
r145 51 53 89.3538
r146 48 55 121.68
r147 43 53 4.8207
r148 43 45 136.5
r149 24 68 89.3538
r150 22 29 4.7687
r151 22 65 89.3538
r152 19 69 0.599231
r153 17 19 0.219955
r154 17 18 0.095
r155 15 29 31.98
r156 11 13 78.78
r157 10 24 4.7687
r158 10 13 31.98
.ends

.subckt PM_RIPPLE%XI16/NET14 19 20 21 23 25 27 31 35 39 43 49 51 58 60 62 64 70
+ 74 91 94 98 99 100 101 108 110 112 116 122 124 126
c136 129 0 8.44687e-19
c137 126 0 0.0895778f
c138 124 0 9.25404e-19
c139 122 0 0.00469071f
c140 116 0 0.00271936f
c141 112 0 0.0115208f
c142 110 0 0.0053268f
c143 108 0 0.0254544f
c144 103 0 9.48716e-19
c145 100 0 0.0032817f
c146 99 0 0.00722135f
c147 98 0 0.00631881f
c148 91 0 0.0422901f
c149 74 0 0.00499149f
c150 73 0 5.57264e-19
c151 72 0 5.57264e-19